* NGSPICE file created from BGR_lvs.ext - technology: sky130A

.subckt sky130_fd_pr__res_xhigh_po_5p73_UZMRKM a_669_10600# a_n3057_n11032# a_n1815_n11032#
+ a_n3057_10600# a_n1815_10600# a_n3187_n11162# a_669_n11032# a_n573_10600# a_n573_n11032#
+ a_1911_n11032# a_1911_10600#
X0 a_n3057_n11032# a_n3057_10600# a_n3187_n11162# sky130_fd_pr__res_xhigh_po_5p73 l=1.06e+08u
X1 a_n573_n11032# a_n573_10600# a_n3187_n11162# sky130_fd_pr__res_xhigh_po_5p73 l=1.06e+08u
X2 a_n1815_n11032# a_n1815_10600# a_n3187_n11162# sky130_fd_pr__res_xhigh_po_5p73 l=1.06e+08u
X3 a_669_n11032# a_669_10600# a_n3187_n11162# sky130_fd_pr__res_xhigh_po_5p73 l=1.06e+08u
X4 a_1911_n11032# a_1911_10600# a_n3187_n11162# sky130_fd_pr__res_xhigh_po_5p73 l=1.06e+08u
.ends

.subckt XM_Rref sky130_fd_pr__res_xhigh_po_5p73_UZMRKM_0/a_1911_n11032# sky130_fd_pr__res_xhigh_po_5p73_UZMRKM_0/a_n3057_10600#
+ VSUBS
Xsky130_fd_pr__res_xhigh_po_5p73_UZMRKM_0 m1_3616_20636# m1_n110_n995# m1_n110_n995#
+ sky130_fd_pr__res_xhigh_po_5p73_UZMRKM_0/a_n3057_10600# m1_1132_20636# VSUBS m1_2374_n995#
+ m1_1132_20636# m1_2374_n995# sky130_fd_pr__res_xhigh_po_5p73_UZMRKM_0/a_1911_n11032#
+ m1_3616_20636# sky130_fd_pr__res_xhigh_po_5p73_UZMRKM
.ends

.subckt sky130_fd_pr__res_high_po_1p41_S8KB58 a_n141_n4671# a_n141_4239# a_n271_n4801#
X0 a_n141_n4671# a_n141_4239# a_n271_n4801# sky130_fd_pr__res_high_po_1p41 l=4.239e+07u
.ends

.subckt sky130_fd_pr__pfet_01v8_TSNZVH a_50_n364# w_n246_n584# a_n108_n364# a_n50_n461#
X0 a_50_n364# a_n50_n461# a_n108_n364# w_n246_n584# sky130_fd_pr__pfet_01v8 ad=1.16e+12p pd=8.58e+06u as=1.16e+12p ps=8.58e+06u w=4e+06u l=500000u
.ends

.subckt sky130_fd_pr__nfet_01v8_Y5UG24 a_n108_n181# a_n50_n207# a_n210_n293# a_50_n181#
X0 a_50_n181# a_n50_n207# a_n108_n181# a_n210_n293# sky130_fd_pr__nfet_01v8 ad=4.35e+11p pd=3.58e+06u as=4.35e+11p ps=3.58e+06u w=1.5e+06u l=500000u
.ends

.subckt sky130_fd_pr__res_high_po_1p41_2TBR6S a_n141_n2032# a_n141_1600# a_n271_n2162#
X0 a_n141_n2032# a_n141_1600# a_n271_n2162# sky130_fd_pr__res_high_po_1p41 l=1.6e+07u
.ends

.subckt sky130_fd_pr__cap_mim_m3_1_Y9W37A m3_n2450_n680# c1_n2350_n580#
X0 c1_n2350_n580# m3_n2450_n680# sky130_fd_pr__cap_mim_m3_1 l=5.8e+06u w=2.3e+07u
.ends

.subckt XM_pdn sky130_fd_pr__cap_mim_m3_1_Y9W37A_0/c1_n2350_n580# sky130_fd_pr__nfet_01v8_Y5UG24_2/a_n108_n181#
+ m1_160_n220# li_97_967# sky130_fd_pr__nfet_01v8_Y5UG24_2/a_50_n181# VSUBS
Xsky130_fd_pr__pfet_01v8_TSNZVH_0 m1_280_n320# li_97_967# li_97_967# m1_160_n220#
+ sky130_fd_pr__pfet_01v8_TSNZVH
Xsky130_fd_pr__pfet_01v8_TSNZVH_1 m1_660_n320# li_97_967# li_97_967# m1_280_n320#
+ sky130_fd_pr__pfet_01v8_TSNZVH
Xsky130_fd_pr__nfet_01v8_Y5UG24_0 VSUBS m1_160_n220# VSUBS m1_280_n320# sky130_fd_pr__nfet_01v8_Y5UG24
Xsky130_fd_pr__nfet_01v8_Y5UG24_1 VSUBS m1_280_n320# VSUBS m1_660_n320# sky130_fd_pr__nfet_01v8_Y5UG24
Xsky130_fd_pr__nfet_01v8_Y5UG24_2 sky130_fd_pr__nfet_01v8_Y5UG24_2/a_n108_n181# m1_910_n240#
+ VSUBS sky130_fd_pr__nfet_01v8_Y5UG24_2/a_50_n181# sky130_fd_pr__nfet_01v8_Y5UG24
Xsky130_fd_pr__res_high_po_1p41_2TBR6S_0 m1_660_n320# m1_910_n240# VSUBS sky130_fd_pr__res_high_po_1p41_2TBR6S
Xsky130_fd_pr__cap_mim_m3_1_Y9W37A_0 m1_910_n240# sky130_fd_pr__cap_mim_m3_1_Y9W37A_0/c1_n2350_n580#
+ sky130_fd_pr__cap_mim_m3_1_Y9W37A
.ends

.subckt sky130_fd_pr__pfet_01v8_lvt_Q24T46 a_n416_n136# a_n616_n162# w_n812_n284#
+ a_358_n136# a_158_n162# a_100_n136# a_n674_n136# a_n158_n136# a_n358_n162# a_616_n136#
+ a_416_n162# a_n100_n162#
X0 a_358_n136# a_158_n162# a_100_n136# w_n812_n284# sky130_fd_pr__pfet_01v8_lvt ad=2.9e+11p pd=2.58e+06u as=2.9e+11p ps=2.58e+06u w=1e+06u l=1e+06u
X1 a_616_n136# a_416_n162# a_358_n136# w_n812_n284# sky130_fd_pr__pfet_01v8_lvt ad=2.9e+11p pd=2.58e+06u as=0p ps=0u w=1e+06u l=1e+06u
X2 a_100_n136# a_n100_n162# a_n158_n136# w_n812_n284# sky130_fd_pr__pfet_01v8_lvt ad=0p pd=0u as=2.9e+11p ps=2.58e+06u w=1e+06u l=1e+06u
X3 a_n416_n136# a_n616_n162# a_n674_n136# w_n812_n284# sky130_fd_pr__pfet_01v8_lvt ad=2.9e+11p pd=2.58e+06u as=2.9e+11p ps=2.58e+06u w=1e+06u l=1e+06u
X4 a_n158_n136# a_n358_n162# a_n416_n136# w_n812_n284# sky130_fd_pr__pfet_01v8_lvt ad=0p pd=0u as=0p ps=0u w=1e+06u l=1e+06u
.ends

.subckt sky130_fd_pr__pfet_01v8_lvt_MUVY4U a_n616_n161# a_358_n64# a_n674_n64# a_n158_n64#
+ w_n812_n284# a_158_n161# a_n358_n161# a_416_n161# a_n100_n161# a_616_n64# a_100_n64#
+ a_n416_n64#
X0 a_100_n64# a_n100_n161# a_n158_n64# w_n812_n284# sky130_fd_pr__pfet_01v8_lvt ad=2.9e+11p pd=2.58e+06u as=2.9e+11p ps=2.58e+06u w=1e+06u l=1e+06u
X1 a_616_n64# a_416_n161# a_358_n64# w_n812_n284# sky130_fd_pr__pfet_01v8_lvt ad=2.9e+11p pd=2.58e+06u as=2.9e+11p ps=2.58e+06u w=1e+06u l=1e+06u
X2 a_358_n64# a_158_n161# a_100_n64# w_n812_n284# sky130_fd_pr__pfet_01v8_lvt ad=0p pd=0u as=0p ps=0u w=1e+06u l=1e+06u
X3 a_n416_n64# a_n616_n161# a_n674_n64# w_n812_n284# sky130_fd_pr__pfet_01v8_lvt ad=2.9e+11p pd=2.58e+06u as=2.9e+11p ps=2.58e+06u w=1e+06u l=1e+06u
X4 a_n158_n64# a_n358_n161# a_n416_n64# w_n812_n284# sky130_fd_pr__pfet_01v8_lvt ad=0p pd=0u as=0p ps=0u w=1e+06u l=1e+06u
.ends

.subckt XM_current_gate m1_30_n420# m1_94_n180# li_818_316# m1_30_260#
Xsky130_fd_pr__pfet_01v8_lvt_Q24T46_0 li_818_316# m1_94_n180# li_818_316# m1_30_n420#
+ m1_94_n180# li_818_316# m1_30_n420# m1_30_260# m1_94_n180# li_818_316# m1_94_n180#
+ m1_94_n180# sky130_fd_pr__pfet_01v8_lvt_Q24T46
Xsky130_fd_pr__pfet_01v8_lvt_MUVY4U_0 m1_94_n180# m1_30_260# m1_30_260# m1_30_n420#
+ li_818_316# m1_94_n180# m1_94_n180# m1_94_n180# m1_94_n180# li_818_316# li_818_316#
+ li_818_316# sky130_fd_pr__pfet_01v8_lvt_MUVY4U
.ends

.subckt XM_current_gate_with_dummy XM_current_gate_6/m1_30_n420# XM_current_gate_8/m1_30_260#
+ XM_current_gate_1/m1_94_n180# XM_current_gate_3/m1_94_n180# XM_current_gate_1/m1_30_260#
+ XM_current_gate_6/m1_94_n180# XM_current_gate_7/m1_30_n420# XM_current_gate_2/m1_94_n180#
+ XM_current_gate_5/m1_30_n420# XM_current_gate_0/m1_30_n420# XM_current_gate_2/m1_30_260#
+ XM_current_gate_8/m1_30_n420# XM_current_gate_5/m1_94_n180# XM_current_gate_2/m1_30_n420#
+ XM_current_gate_4/m1_94_n180# XM_current_gate_5/m1_30_260# XM_current_gate_4/m1_30_260#
+ XM_current_gate_7/m1_30_260# XM_current_gate_3/m1_30_n420# XM_current_gate_8/li_818_316#
+ XM_current_gate_4/m1_30_n420# XM_current_gate_1/m1_30_n420# XM_current_gate_8/m1_94_n180#
+ XM_current_gate_0/m1_94_n180# XM_current_gate_0/m1_30_260# XM_current_gate_3/m1_30_260#
+ XM_current_gate_6/m1_30_260# XM_current_gate_7/m1_94_n180#
XXM_current_gate_0 XM_current_gate_0/m1_30_n420# XM_current_gate_0/m1_94_n180# XM_current_gate_8/li_818_316#
+ XM_current_gate_0/m1_30_260# XM_current_gate
XXM_current_gate_1 XM_current_gate_1/m1_30_n420# XM_current_gate_1/m1_94_n180# XM_current_gate_8/li_818_316#
+ XM_current_gate_1/m1_30_260# XM_current_gate
XXM_current_gate_2 XM_current_gate_2/m1_30_n420# XM_current_gate_2/m1_94_n180# XM_current_gate_8/li_818_316#
+ XM_current_gate_2/m1_30_260# XM_current_gate
XXM_current_gate_3 XM_current_gate_3/m1_30_n420# XM_current_gate_3/m1_94_n180# XM_current_gate_8/li_818_316#
+ XM_current_gate_3/m1_30_260# XM_current_gate
XXM_current_gate_4 XM_current_gate_4/m1_30_n420# XM_current_gate_4/m1_94_n180# XM_current_gate_8/li_818_316#
+ XM_current_gate_4/m1_30_260# XM_current_gate
XXM_current_gate_5 XM_current_gate_5/m1_30_n420# XM_current_gate_5/m1_94_n180# XM_current_gate_8/li_818_316#
+ XM_current_gate_5/m1_30_260# XM_current_gate
XXM_current_gate_6 XM_current_gate_6/m1_30_n420# XM_current_gate_6/m1_94_n180# XM_current_gate_8/li_818_316#
+ XM_current_gate_6/m1_30_260# XM_current_gate
XXM_current_gate_7 XM_current_gate_7/m1_30_n420# XM_current_gate_7/m1_94_n180# XM_current_gate_8/li_818_316#
+ XM_current_gate_7/m1_30_260# XM_current_gate
XXM_current_gate_8 XM_current_gate_8/m1_30_n420# XM_current_gate_8/m1_94_n180# XM_current_gate_8/li_818_316#
+ XM_current_gate_8/m1_30_260# XM_current_gate
.ends

.subckt sky130_fd_pr__pfet_01v8_lvt_8URDWJ a_1003_n795# a_745_300# a_803_n892# a_229_1030#
+ a_545_933# w_n1097_n1260# w_n1097_n165# a_229_300# a_1003_n65# a_n287_n430# a_287_203#
+ a_1003_665# a_n1061_n430# a_n1061_300# a_n29_n795# a_n545_1030# a_287_n1257# a_487_n795#
+ a_545_568# a_n545_300# a_745_n430# a_n229_n892# a_n1061_n1160# a_n1003_n892# a_29_933#
+ a_n1003_933# a_287_n892# a_n745_203# a_1003_1030# a_29_n527# a_n803_n65# a_n803_665#
+ a_n803_n795# a_n487_n162# a_n229_203# a_487_300# a_n745_n527# w_n1097_n895# a_29_568#
+ a_n1003_568# a_287_933# a_n29_300# a_545_n1257# a_545_n162# a_n487_n1257# a_29_n1257#
+ a_745_n65# a_803_n527# a_n29_1030# a_745_665# a_229_n430# a_487_1030# a_487_n1160#
+ w_n1097_200# a_229_n65# a_229_665# a_n287_n795# a_n287_n1160# a_n287_300# a_287_568#
+ a_n1061_n795# a_n545_n430# a_803_203# a_n1061_n65# a_n745_933# a_n1061_665# a_n229_n527#
+ a_n487_203# a_n803_1030# a_n545_n65# a_n1003_n527# a_n487_n892# a_n229_933# a_n545_665#
+ a_287_n527# a_745_n795# a_1003_n430# a_n1003_n1257# a_803_n1257# a_n745_n1257# a_545_n892#
+ a_n745_568# a_29_n162# a_745_n1160# a_487_n65# w_n1097_930# a_n229_568# a_487_665#
+ a_n545_n1160# a_1003_300# a_n745_n162# a_1003_n1160# a_n287_1030# a_n29_n65# a_n1061_1030#
+ a_n29_665# a_n29_n430# a_803_933# a_487_n430# a_803_n162# a_229_n795# a_545_203#
+ a_n487_933# w_n1097_565# a_745_1030# a_n287_n65# a_n287_665# a_n545_n795# a_803_568#
+ a_n803_300# a_n229_n1257# a_n29_n1160# a_n803_n430# a_29_n892# a_n487_n527# a_n487_568#
+ a_n229_n162# a_n803_n1160# w_n1097_n530# a_229_n1160# a_n1003_n162# a_n1003_203#
+ a_29_203# a_287_n162# a_n745_n892# a_545_n527#
X0 a_n545_n795# a_n745_n892# a_n803_n795# w_n1097_n895# sky130_fd_pr__pfet_01v8_lvt ad=2.9e+11p pd=2.58e+06u as=2.9e+11p ps=2.58e+06u w=1e+06u l=1e+06u
X1 a_n803_n795# a_n1003_n892# a_n1061_n795# w_n1097_n895# sky130_fd_pr__pfet_01v8_lvt ad=0p pd=0u as=2.9e+11p ps=2.58e+06u w=1e+06u l=1e+06u
X2 a_n287_n795# a_n487_n892# a_n545_n795# w_n1097_n895# sky130_fd_pr__pfet_01v8_lvt ad=2.9e+11p pd=2.58e+06u as=0p ps=0u w=1e+06u l=1e+06u
X3 a_n287_n65# a_n487_n162# a_n545_n65# w_n1097_n165# sky130_fd_pr__pfet_01v8_lvt ad=2.9e+11p pd=2.58e+06u as=2.9e+11p ps=2.58e+06u w=1e+06u l=1e+06u
X4 a_1003_n430# a_803_n527# a_745_n430# w_n1097_n530# sky130_fd_pr__pfet_01v8_lvt ad=2.9e+11p pd=2.58e+06u as=2.9e+11p ps=2.58e+06u w=1e+06u l=1e+06u
X5 a_n803_665# a_n1003_568# a_n1061_665# w_n1097_565# sky130_fd_pr__pfet_01v8_lvt ad=2.9e+11p pd=2.58e+06u as=2.9e+11p ps=2.58e+06u w=1e+06u l=1e+06u
X6 a_745_665# a_545_568# a_487_665# w_n1097_565# sky130_fd_pr__pfet_01v8_lvt ad=2.9e+11p pd=2.58e+06u as=2.9e+11p ps=2.58e+06u w=1e+06u l=1e+06u
X7 a_745_n430# a_545_n527# a_487_n430# w_n1097_n530# sky130_fd_pr__pfet_01v8_lvt ad=0p pd=0u as=2.9e+11p ps=2.58e+06u w=1e+06u l=1e+06u
X8 a_n29_665# a_n229_568# a_n287_665# w_n1097_565# sky130_fd_pr__pfet_01v8_lvt ad=2.9e+11p pd=2.58e+06u as=2.9e+11p ps=2.58e+06u w=1e+06u l=1e+06u
X9 a_487_n430# a_287_n527# a_229_n430# w_n1097_n530# sky130_fd_pr__pfet_01v8_lvt ad=0p pd=0u as=2.9e+11p ps=2.58e+06u w=1e+06u l=1e+06u
X10 a_n803_300# a_n1003_203# a_n1061_300# w_n1097_200# sky130_fd_pr__pfet_01v8_lvt ad=2.9e+11p pd=2.58e+06u as=2.9e+11p ps=2.58e+06u w=1e+06u l=1e+06u
X11 a_745_300# a_545_203# a_487_300# w_n1097_200# sky130_fd_pr__pfet_01v8_lvt ad=2.9e+11p pd=2.58e+06u as=2.9e+11p ps=2.58e+06u w=1e+06u l=1e+06u
X12 a_229_665# a_29_568# a_n29_665# w_n1097_565# sky130_fd_pr__pfet_01v8_lvt ad=2.9e+11p pd=2.58e+06u as=0p ps=0u w=1e+06u l=1e+06u
X13 a_n29_300# a_n229_203# a_n287_300# w_n1097_200# sky130_fd_pr__pfet_01v8_lvt ad=2.9e+11p pd=2.58e+06u as=2.9e+11p ps=2.58e+06u w=1e+06u l=1e+06u
X14 a_229_300# a_29_203# a_n29_300# w_n1097_200# sky130_fd_pr__pfet_01v8_lvt ad=2.9e+11p pd=2.58e+06u as=0p ps=0u w=1e+06u l=1e+06u
X15 a_487_n1160# a_287_n1257# a_229_n1160# w_n1097_n1260# sky130_fd_pr__pfet_01v8_lvt ad=2.9e+11p pd=2.58e+06u as=2.9e+11p ps=2.58e+06u w=1e+06u l=1e+06u
X16 a_n29_1030# a_n229_933# a_n287_1030# w_n1097_930# sky130_fd_pr__pfet_01v8_lvt ad=2.9e+11p pd=2.58e+06u as=2.9e+11p ps=2.58e+06u w=1e+06u l=1e+06u
X17 a_229_1030# a_29_933# a_n29_1030# w_n1097_930# sky130_fd_pr__pfet_01v8_lvt ad=2.9e+11p pd=2.58e+06u as=0p ps=0u w=1e+06u l=1e+06u
X18 a_1003_n65# a_803_n162# a_745_n65# w_n1097_n165# sky130_fd_pr__pfet_01v8_lvt ad=2.9e+11p pd=2.58e+06u as=2.9e+11p ps=2.58e+06u w=1e+06u l=1e+06u
X19 a_745_n795# a_545_n892# a_487_n795# w_n1097_n895# sky130_fd_pr__pfet_01v8_lvt ad=2.9e+11p pd=2.58e+06u as=2.9e+11p ps=2.58e+06u w=1e+06u l=1e+06u
X20 a_1003_n795# a_803_n892# a_745_n795# w_n1097_n895# sky130_fd_pr__pfet_01v8_lvt ad=2.9e+11p pd=2.58e+06u as=0p ps=0u w=1e+06u l=1e+06u
X21 a_487_665# a_287_568# a_229_665# w_n1097_565# sky130_fd_pr__pfet_01v8_lvt ad=0p pd=0u as=0p ps=0u w=1e+06u l=1e+06u
X22 a_487_n795# a_287_n892# a_229_n795# w_n1097_n895# sky130_fd_pr__pfet_01v8_lvt ad=0p pd=0u as=2.9e+11p ps=2.58e+06u w=1e+06u l=1e+06u
X23 a_n287_n1160# a_n487_n1257# a_n545_n1160# w_n1097_n1260# sky130_fd_pr__pfet_01v8_lvt ad=2.9e+11p pd=2.58e+06u as=2.9e+11p ps=2.58e+06u w=1e+06u l=1e+06u
X24 a_n545_665# a_n745_568# a_n803_665# w_n1097_565# sky130_fd_pr__pfet_01v8_lvt ad=2.9e+11p pd=2.58e+06u as=0p ps=0u w=1e+06u l=1e+06u
X25 a_487_300# a_287_203# a_229_300# w_n1097_200# sky130_fd_pr__pfet_01v8_lvt ad=0p pd=0u as=0p ps=0u w=1e+06u l=1e+06u
X26 a_n29_n1160# a_n229_n1257# a_n287_n1160# w_n1097_n1260# sky130_fd_pr__pfet_01v8_lvt ad=2.9e+11p pd=2.58e+06u as=0p ps=0u w=1e+06u l=1e+06u
X27 a_n545_300# a_n745_203# a_n803_300# w_n1097_200# sky130_fd_pr__pfet_01v8_lvt ad=2.9e+11p pd=2.58e+06u as=0p ps=0u w=1e+06u l=1e+06u
X28 a_n545_1030# a_n745_933# a_n803_1030# w_n1097_930# sky130_fd_pr__pfet_01v8_lvt ad=2.9e+11p pd=2.58e+06u as=2.9e+11p ps=2.58e+06u w=1e+06u l=1e+06u
X29 a_n803_1030# a_n1003_933# a_n1061_1030# w_n1097_930# sky130_fd_pr__pfet_01v8_lvt ad=0p pd=0u as=2.9e+11p ps=2.58e+06u w=1e+06u l=1e+06u
X30 a_n287_1030# a_n487_933# a_n545_1030# w_n1097_930# sky130_fd_pr__pfet_01v8_lvt ad=0p pd=0u as=0p ps=0u w=1e+06u l=1e+06u
X31 a_n803_n65# a_n1003_n162# a_n1061_n65# w_n1097_n165# sky130_fd_pr__pfet_01v8_lvt ad=2.9e+11p pd=2.58e+06u as=2.9e+11p ps=2.58e+06u w=1e+06u l=1e+06u
X32 a_745_n65# a_545_n162# a_487_n65# w_n1097_n165# sky130_fd_pr__pfet_01v8_lvt ad=0p pd=0u as=2.9e+11p ps=2.58e+06u w=1e+06u l=1e+06u
X33 a_229_n430# a_29_n527# a_n29_n430# w_n1097_n530# sky130_fd_pr__pfet_01v8_lvt ad=0p pd=0u as=2.9e+11p ps=2.58e+06u w=1e+06u l=1e+06u
X34 a_n29_n65# a_n229_n162# a_n287_n65# w_n1097_n165# sky130_fd_pr__pfet_01v8_lvt ad=2.9e+11p pd=2.58e+06u as=0p ps=0u w=1e+06u l=1e+06u
X35 a_n29_n430# a_n229_n527# a_n287_n430# w_n1097_n530# sky130_fd_pr__pfet_01v8_lvt ad=0p pd=0u as=2.9e+11p ps=2.58e+06u w=1e+06u l=1e+06u
X36 a_745_n1160# a_545_n1257# a_487_n1160# w_n1097_n1260# sky130_fd_pr__pfet_01v8_lvt ad=2.9e+11p pd=2.58e+06u as=0p ps=0u w=1e+06u l=1e+06u
X37 a_n287_665# a_n487_568# a_n545_665# w_n1097_565# sky130_fd_pr__pfet_01v8_lvt ad=0p pd=0u as=0p ps=0u w=1e+06u l=1e+06u
X38 a_229_n65# a_29_n162# a_n29_n65# w_n1097_n165# sky130_fd_pr__pfet_01v8_lvt ad=2.9e+11p pd=2.58e+06u as=0p ps=0u w=1e+06u l=1e+06u
X39 a_n545_n1160# a_n745_n1257# a_n803_n1160# w_n1097_n1260# sky130_fd_pr__pfet_01v8_lvt ad=0p pd=0u as=2.9e+11p ps=2.58e+06u w=1e+06u l=1e+06u
X40 a_229_n1160# a_29_n1257# a_n29_n1160# w_n1097_n1260# sky130_fd_pr__pfet_01v8_lvt ad=0p pd=0u as=0p ps=0u w=1e+06u l=1e+06u
X41 a_n287_300# a_n487_203# a_n545_300# w_n1097_200# sky130_fd_pr__pfet_01v8_lvt ad=0p pd=0u as=0p ps=0u w=1e+06u l=1e+06u
X42 a_487_n65# a_287_n162# a_229_n65# w_n1097_n165# sky130_fd_pr__pfet_01v8_lvt ad=0p pd=0u as=0p ps=0u w=1e+06u l=1e+06u
X43 a_n545_n430# a_n745_n527# a_n803_n430# w_n1097_n530# sky130_fd_pr__pfet_01v8_lvt ad=2.9e+11p pd=2.58e+06u as=2.9e+11p ps=2.58e+06u w=1e+06u l=1e+06u
X44 a_n287_n430# a_n487_n527# a_n545_n430# w_n1097_n530# sky130_fd_pr__pfet_01v8_lvt ad=0p pd=0u as=0p ps=0u w=1e+06u l=1e+06u
X45 a_n29_n795# a_n229_n892# a_n287_n795# w_n1097_n895# sky130_fd_pr__pfet_01v8_lvt ad=2.9e+11p pd=2.58e+06u as=0p ps=0u w=1e+06u l=1e+06u
X46 a_229_n795# a_29_n892# a_n29_n795# w_n1097_n895# sky130_fd_pr__pfet_01v8_lvt ad=0p pd=0u as=0p ps=0u w=1e+06u l=1e+06u
X47 a_745_1030# a_545_933# a_487_1030# w_n1097_930# sky130_fd_pr__pfet_01v8_lvt ad=2.9e+11p pd=2.58e+06u as=2.9e+11p ps=2.58e+06u w=1e+06u l=1e+06u
X48 a_1003_1030# a_803_933# a_745_1030# w_n1097_930# sky130_fd_pr__pfet_01v8_lvt ad=2.9e+11p pd=2.58e+06u as=0p ps=0u w=1e+06u l=1e+06u
X49 a_n803_n430# a_n1003_n527# a_n1061_n430# w_n1097_n530# sky130_fd_pr__pfet_01v8_lvt ad=0p pd=0u as=2.9e+11p ps=2.58e+06u w=1e+06u l=1e+06u
X50 a_487_1030# a_287_933# a_229_1030# w_n1097_930# sky130_fd_pr__pfet_01v8_lvt ad=0p pd=0u as=0p ps=0u w=1e+06u l=1e+06u
X51 a_n545_n65# a_n745_n162# a_n803_n65# w_n1097_n165# sky130_fd_pr__pfet_01v8_lvt ad=0p pd=0u as=0p ps=0u w=1e+06u l=1e+06u
X52 a_1003_n1160# a_803_n1257# a_745_n1160# w_n1097_n1260# sky130_fd_pr__pfet_01v8_lvt ad=2.9e+11p pd=2.58e+06u as=0p ps=0u w=1e+06u l=1e+06u
X53 a_1003_665# a_803_568# a_745_665# w_n1097_565# sky130_fd_pr__pfet_01v8_lvt ad=2.9e+11p pd=2.58e+06u as=0p ps=0u w=1e+06u l=1e+06u
X54 a_1003_300# a_803_203# a_745_300# w_n1097_200# sky130_fd_pr__pfet_01v8_lvt ad=2.9e+11p pd=2.58e+06u as=0p ps=0u w=1e+06u l=1e+06u
X55 a_n803_n1160# a_n1003_n1257# a_n1061_n1160# w_n1097_n1260# sky130_fd_pr__pfet_01v8_lvt ad=0p pd=0u as=2.9e+11p ps=2.58e+06u w=1e+06u l=1e+06u
.ends

.subckt XM_feedbackmir m1_30_180# B m1_290_100# m1_290_460# m1_98_12#
Xsky130_fd_pr__pfet_01v8_lvt_8URDWJ_0 m1_30_180# m1_290_460# m1_98_12# m1_290_100#
+ m1_98_12# B B m1_290_100# m1_30_180# m1_290_460# m1_98_12# m1_30_180# m1_30_180#
+ m1_30_180# m1_30_180# m1_30_180# m1_98_12# m1_30_180# m1_98_12# m1_30_180# m1_290_460#
+ m1_98_12# m1_30_180# m1_98_12# m1_98_12# m1_98_12# m1_98_12# m1_98_12# m1_30_180#
+ m1_98_12# m1_290_460# m1_290_460# m1_290_460# m1_98_12# m1_98_12# m1_30_180# m1_98_12#
+ B m1_98_12# m1_98_12# m1_98_12# m1_30_180# m1_98_12# m1_98_12# m1_98_12# m1_98_12#
+ m1_290_100# m1_98_12# m1_30_180# m1_290_100# m1_290_100# m1_30_180# m1_30_180# B
+ m1_290_460# m1_290_460# m1_290_100# m1_290_460# m1_290_460# m1_98_12# m1_30_180#
+ m1_30_180# m1_98_12# m1_30_180# m1_98_12# m1_30_180# m1_98_12# m1_98_12# m1_290_100#
+ m1_30_180# m1_98_12# m1_98_12# m1_98_12# m1_30_180# m1_98_12# m1_290_100# m1_30_180#
+ m1_98_12# m1_98_12# m1_98_12# m1_98_12# m1_98_12# m1_98_12# m1_290_460# m1_30_180#
+ B m1_98_12# m1_30_180# m1_30_180# m1_30_180# m1_98_12# m1_30_180# m1_290_460# m1_30_180#
+ m1_30_180# m1_30_180# m1_30_180# m1_98_12# m1_30_180# m1_98_12# m1_290_460# m1_98_12#
+ m1_98_12# B m1_290_460# m1_290_100# m1_290_100# m1_30_180# m1_98_12# m1_290_100#
+ m1_98_12# m1_30_180# m1_290_100# m1_98_12# m1_98_12# m1_98_12# m1_98_12# m1_290_100#
+ B m1_290_100# m1_98_12# m1_98_12# m1_98_12# m1_98_12# m1_98_12# m1_98_12# sky130_fd_pr__pfet_01v8_lvt_8URDWJ
.ends

.subckt sky130_fd_pr__rf_pnp_05v5_W3p40L3p40 Emitter Collector Base m=1
X0 Collector Base Emitter sky130_fd_pr__pnp_05v5_W3p40L3p40
.ends

.subckt XM_bjt sky130_fd_pr__rf_pnp_05v5_W3p40L3p40_0[6|4]/Emitter sky130_fd_pr__rf_pnp_05v5_W3p40L3p40_0[3|2]/Emitter
+ VSUBS
Xsky130_fd_pr__rf_pnp_05v5_W3p40L3p40_0[0|0] sky130_fd_pr__rf_pnp_05v5_W3p40L3p40_0[6|4]/Emitter
+ VSUBS VSUBS sky130_fd_pr__rf_pnp_05v5_W3p40L3p40 m=1
Xsky130_fd_pr__rf_pnp_05v5_W3p40L3p40_0[1|0] sky130_fd_pr__rf_pnp_05v5_W3p40L3p40_0[6|4]/Emitter
+ VSUBS VSUBS sky130_fd_pr__rf_pnp_05v5_W3p40L3p40 m=1
Xsky130_fd_pr__rf_pnp_05v5_W3p40L3p40_0[2|0] sky130_fd_pr__rf_pnp_05v5_W3p40L3p40_0[6|4]/Emitter
+ VSUBS VSUBS sky130_fd_pr__rf_pnp_05v5_W3p40L3p40 m=1
Xsky130_fd_pr__rf_pnp_05v5_W3p40L3p40_0[3|0] sky130_fd_pr__rf_pnp_05v5_W3p40L3p40_0[6|4]/Emitter
+ VSUBS VSUBS sky130_fd_pr__rf_pnp_05v5_W3p40L3p40 m=1
Xsky130_fd_pr__rf_pnp_05v5_W3p40L3p40_0[4|0] sky130_fd_pr__rf_pnp_05v5_W3p40L3p40_0[6|4]/Emitter
+ VSUBS VSUBS sky130_fd_pr__rf_pnp_05v5_W3p40L3p40 m=1
Xsky130_fd_pr__rf_pnp_05v5_W3p40L3p40_0[5|0] sky130_fd_pr__rf_pnp_05v5_W3p40L3p40_0[6|4]/Emitter
+ VSUBS VSUBS sky130_fd_pr__rf_pnp_05v5_W3p40L3p40 m=1
Xsky130_fd_pr__rf_pnp_05v5_W3p40L3p40_0[6|0] sky130_fd_pr__rf_pnp_05v5_W3p40L3p40_0[6|4]/Emitter
+ VSUBS VSUBS sky130_fd_pr__rf_pnp_05v5_W3p40L3p40 m=1
Xsky130_fd_pr__rf_pnp_05v5_W3p40L3p40_0[0|1] sky130_fd_pr__rf_pnp_05v5_W3p40L3p40_0[6|4]/Emitter
+ VSUBS VSUBS sky130_fd_pr__rf_pnp_05v5_W3p40L3p40 m=1
Xsky130_fd_pr__rf_pnp_05v5_W3p40L3p40_0[1|1] sky130_fd_pr__rf_pnp_05v5_W3p40L3p40_0[6|4]/Emitter
+ VSUBS VSUBS sky130_fd_pr__rf_pnp_05v5_W3p40L3p40 m=1
Xsky130_fd_pr__rf_pnp_05v5_W3p40L3p40_0[2|1] sky130_fd_pr__rf_pnp_05v5_W3p40L3p40_0[6|4]/Emitter
+ VSUBS VSUBS sky130_fd_pr__rf_pnp_05v5_W3p40L3p40 m=1
Xsky130_fd_pr__rf_pnp_05v5_W3p40L3p40_0[3|1] sky130_fd_pr__rf_pnp_05v5_W3p40L3p40_0[6|4]/Emitter
+ VSUBS VSUBS sky130_fd_pr__rf_pnp_05v5_W3p40L3p40 m=1
Xsky130_fd_pr__rf_pnp_05v5_W3p40L3p40_0[4|1] sky130_fd_pr__rf_pnp_05v5_W3p40L3p40_0[6|4]/Emitter
+ VSUBS VSUBS sky130_fd_pr__rf_pnp_05v5_W3p40L3p40 m=1
Xsky130_fd_pr__rf_pnp_05v5_W3p40L3p40_0[5|1] sky130_fd_pr__rf_pnp_05v5_W3p40L3p40_0[6|4]/Emitter
+ VSUBS VSUBS sky130_fd_pr__rf_pnp_05v5_W3p40L3p40 m=1
Xsky130_fd_pr__rf_pnp_05v5_W3p40L3p40_0[6|1] sky130_fd_pr__rf_pnp_05v5_W3p40L3p40_0[6|4]/Emitter
+ VSUBS VSUBS sky130_fd_pr__rf_pnp_05v5_W3p40L3p40 m=1
Xsky130_fd_pr__rf_pnp_05v5_W3p40L3p40_0[0|2] sky130_fd_pr__rf_pnp_05v5_W3p40L3p40_0[6|4]/Emitter
+ VSUBS VSUBS sky130_fd_pr__rf_pnp_05v5_W3p40L3p40 m=1
Xsky130_fd_pr__rf_pnp_05v5_W3p40L3p40_0[1|2] sky130_fd_pr__rf_pnp_05v5_W3p40L3p40_0[6|4]/Emitter
+ VSUBS VSUBS sky130_fd_pr__rf_pnp_05v5_W3p40L3p40 m=1
Xsky130_fd_pr__rf_pnp_05v5_W3p40L3p40_0[2|2] sky130_fd_pr__rf_pnp_05v5_W3p40L3p40_0[6|4]/Emitter
+ VSUBS VSUBS sky130_fd_pr__rf_pnp_05v5_W3p40L3p40 m=1
Xsky130_fd_pr__rf_pnp_05v5_W3p40L3p40_0[3|2] sky130_fd_pr__rf_pnp_05v5_W3p40L3p40_0[3|2]/Emitter
+ VSUBS VSUBS sky130_fd_pr__rf_pnp_05v5_W3p40L3p40 m=1
Xsky130_fd_pr__rf_pnp_05v5_W3p40L3p40_0[4|2] sky130_fd_pr__rf_pnp_05v5_W3p40L3p40_0[6|4]/Emitter
+ VSUBS VSUBS sky130_fd_pr__rf_pnp_05v5_W3p40L3p40 m=1
Xsky130_fd_pr__rf_pnp_05v5_W3p40L3p40_0[5|2] sky130_fd_pr__rf_pnp_05v5_W3p40L3p40_0[6|4]/Emitter
+ VSUBS VSUBS sky130_fd_pr__rf_pnp_05v5_W3p40L3p40 m=1
Xsky130_fd_pr__rf_pnp_05v5_W3p40L3p40_0[6|2] sky130_fd_pr__rf_pnp_05v5_W3p40L3p40_0[6|4]/Emitter
+ VSUBS VSUBS sky130_fd_pr__rf_pnp_05v5_W3p40L3p40 m=1
Xsky130_fd_pr__rf_pnp_05v5_W3p40L3p40_0[0|3] sky130_fd_pr__rf_pnp_05v5_W3p40L3p40_0[6|4]/Emitter
+ VSUBS VSUBS sky130_fd_pr__rf_pnp_05v5_W3p40L3p40 m=1
Xsky130_fd_pr__rf_pnp_05v5_W3p40L3p40_0[1|3] sky130_fd_pr__rf_pnp_05v5_W3p40L3p40_0[6|4]/Emitter
+ VSUBS VSUBS sky130_fd_pr__rf_pnp_05v5_W3p40L3p40 m=1
Xsky130_fd_pr__rf_pnp_05v5_W3p40L3p40_0[2|3] sky130_fd_pr__rf_pnp_05v5_W3p40L3p40_0[6|4]/Emitter
+ VSUBS VSUBS sky130_fd_pr__rf_pnp_05v5_W3p40L3p40 m=1
Xsky130_fd_pr__rf_pnp_05v5_W3p40L3p40_0[3|3] sky130_fd_pr__rf_pnp_05v5_W3p40L3p40_0[6|4]/Emitter
+ VSUBS VSUBS sky130_fd_pr__rf_pnp_05v5_W3p40L3p40 m=1
Xsky130_fd_pr__rf_pnp_05v5_W3p40L3p40_0[4|3] sky130_fd_pr__rf_pnp_05v5_W3p40L3p40_0[6|4]/Emitter
+ VSUBS VSUBS sky130_fd_pr__rf_pnp_05v5_W3p40L3p40 m=1
Xsky130_fd_pr__rf_pnp_05v5_W3p40L3p40_0[5|3] sky130_fd_pr__rf_pnp_05v5_W3p40L3p40_0[6|4]/Emitter
+ VSUBS VSUBS sky130_fd_pr__rf_pnp_05v5_W3p40L3p40 m=1
Xsky130_fd_pr__rf_pnp_05v5_W3p40L3p40_0[6|3] sky130_fd_pr__rf_pnp_05v5_W3p40L3p40_0[6|4]/Emitter
+ VSUBS VSUBS sky130_fd_pr__rf_pnp_05v5_W3p40L3p40 m=1
Xsky130_fd_pr__rf_pnp_05v5_W3p40L3p40_0[0|4] sky130_fd_pr__rf_pnp_05v5_W3p40L3p40_0[6|4]/Emitter
+ VSUBS VSUBS sky130_fd_pr__rf_pnp_05v5_W3p40L3p40 m=1
Xsky130_fd_pr__rf_pnp_05v5_W3p40L3p40_0[1|4] sky130_fd_pr__rf_pnp_05v5_W3p40L3p40_0[6|4]/Emitter
+ VSUBS VSUBS sky130_fd_pr__rf_pnp_05v5_W3p40L3p40 m=1
Xsky130_fd_pr__rf_pnp_05v5_W3p40L3p40_0[2|4] sky130_fd_pr__rf_pnp_05v5_W3p40L3p40_0[6|4]/Emitter
+ VSUBS VSUBS sky130_fd_pr__rf_pnp_05v5_W3p40L3p40 m=1
Xsky130_fd_pr__rf_pnp_05v5_W3p40L3p40_0[3|4] sky130_fd_pr__rf_pnp_05v5_W3p40L3p40_0[6|4]/Emitter
+ VSUBS VSUBS sky130_fd_pr__rf_pnp_05v5_W3p40L3p40 m=1
Xsky130_fd_pr__rf_pnp_05v5_W3p40L3p40_0[4|4] sky130_fd_pr__rf_pnp_05v5_W3p40L3p40_0[6|4]/Emitter
+ VSUBS VSUBS sky130_fd_pr__rf_pnp_05v5_W3p40L3p40 m=1
Xsky130_fd_pr__rf_pnp_05v5_W3p40L3p40_0[5|4] sky130_fd_pr__rf_pnp_05v5_W3p40L3p40_0[6|4]/Emitter
+ VSUBS VSUBS sky130_fd_pr__rf_pnp_05v5_W3p40L3p40 m=1
Xsky130_fd_pr__rf_pnp_05v5_W3p40L3p40_0[6|4] sky130_fd_pr__rf_pnp_05v5_W3p40L3p40_0[6|4]/Emitter
+ VSUBS VSUBS sky130_fd_pr__rf_pnp_05v5_W3p40L3p40 m=1
.ends

.subckt sky130_fd_pr__res_high_po_1p41_GWJZ59 a_n141_n10832# a_n271_n10962# a_n141_10400#
X0 a_n141_n10832# a_n141_10400# a_n271_n10962# sky130_fd_pr__res_high_po_1p41 l=1.04e+08u
.ends

.subckt sky130_fd_pr__res_high_po_1p41_6ZUZ5C a_n271_n1372# a_n141_810# a_n141_n1242#
X0 a_n141_n1242# a_n141_810# a_n271_n1372# sky130_fd_pr__res_high_po_1p41 l=8.1e+06u
.ends

.subckt sky130_fd_pr__pfet_01v8_lvt_MUAP4U a_n100_n344# a_n416_118# a_358_118# a_n416_n247#
+ a_n674_118# a_n616_n344# a_n158_118# a_n100_21# a_n358_21# a_158_21# a_358_n247#
+ w_n812_n466# a_158_n344# a_100_n247# a_n674_n247# a_n616_21# a_416_21# a_n158_n247#
+ a_616_118# a_100_118# a_616_n247# a_n358_n344# a_416_n344#
X0 a_100_118# a_n100_21# a_n158_118# w_n812_n466# sky130_fd_pr__pfet_01v8_lvt ad=2.9e+11p pd=2.58e+06u as=2.9e+11p ps=2.58e+06u w=1e+06u l=1e+06u
X1 a_616_118# a_416_21# a_358_118# w_n812_n466# sky130_fd_pr__pfet_01v8_lvt ad=2.9e+11p pd=2.58e+06u as=2.9e+11p ps=2.58e+06u w=1e+06u l=1e+06u
X2 a_100_n247# a_n100_n344# a_n158_n247# w_n812_n466# sky130_fd_pr__pfet_01v8_lvt ad=2.9e+11p pd=2.58e+06u as=2.9e+11p ps=2.58e+06u w=1e+06u l=1e+06u
X3 a_n416_n247# a_n616_n344# a_n674_n247# w_n812_n466# sky130_fd_pr__pfet_01v8_lvt ad=2.9e+11p pd=2.58e+06u as=2.9e+11p ps=2.58e+06u w=1e+06u l=1e+06u
X4 a_n158_n247# a_n358_n344# a_n416_n247# w_n812_n466# sky130_fd_pr__pfet_01v8_lvt ad=0p pd=0u as=0p ps=0u w=1e+06u l=1e+06u
X5 a_358_118# a_158_21# a_100_118# w_n812_n466# sky130_fd_pr__pfet_01v8_lvt ad=0p pd=0u as=0p ps=0u w=1e+06u l=1e+06u
X6 a_n416_118# a_n616_21# a_n674_118# w_n812_n466# sky130_fd_pr__pfet_01v8_lvt ad=2.9e+11p pd=2.58e+06u as=2.9e+11p ps=2.58e+06u w=1e+06u l=1e+06u
X7 a_n158_118# a_n358_21# a_n416_118# w_n812_n466# sky130_fd_pr__pfet_01v8_lvt ad=0p pd=0u as=0p ps=0u w=1e+06u l=1e+06u
X8 a_358_n247# a_158_n344# a_100_n247# w_n812_n466# sky130_fd_pr__pfet_01v8_lvt ad=2.9e+11p pd=2.58e+06u as=0p ps=0u w=1e+06u l=1e+06u
X9 a_616_n247# a_416_n344# a_358_n247# w_n812_n466# sky130_fd_pr__pfet_01v8_lvt ad=2.9e+11p pd=2.58e+06u as=0p ps=0u w=1e+06u l=1e+06u
.ends

.subckt XM_otabias_pmos m1_143_85# m1_330_160# m1_70_320# sky130_fd_pr__pfet_01v8_lvt_MUAP4U_0/w_n812_n466#
Xsky130_fd_pr__pfet_01v8_lvt_MUAP4U_0 m1_143_85# m1_330_160# m1_70_320# m1_330_160#
+ m1_70_320# m1_143_85# m1_70_320# m1_143_85# m1_143_85# m1_143_85# m1_70_320# sky130_fd_pr__pfet_01v8_lvt_MUAP4U_0/w_n812_n466#
+ m1_143_85# m1_330_160# m1_70_320# m1_143_85# m1_143_85# m1_70_320# m1_330_160# m1_330_160#
+ m1_330_160# m1_143_85# m1_143_85# sky130_fd_pr__pfet_01v8_lvt_MUAP4U
.ends

.subckt sky130_fd_pr__pfet_01v8_lvt_9UM225 a_n932_n247# a_n100_n344# a_n416_118# a_674_21#
+ a_n358_386# a_n416_n612# a_874_118# a_358_118# w_n968_18# a_874_n612# a_158_n709#
+ a_n416_n247# w_n968_n712# a_n674_118# w_n968_383# a_n874_n709# a_874_n247# a_416_386#
+ a_n616_n344# a_n158_118# a_n100_21# a_674_n344# w_n968_n347# a_358_n612# a_n358_21#
+ a_100_n612# a_n674_n612# a_158_21# a_n358_n709# a_358_n247# a_616_483# a_100_483#
+ a_674_386# a_158_n344# a_158_386# a_416_n709# a_n100_n709# a_100_n247# a_n674_n247#
+ a_n932_483# a_n616_21# a_n416_483# a_n158_n612# a_n874_n344# a_416_21# a_n100_386#
+ a_n616_386# a_874_483# a_616_n612# a_358_483# a_n158_n247# a_616_118# a_100_118#
+ a_n932_n612# a_n616_n709# a_616_n247# a_n358_n344# a_n674_483# a_674_n709# a_n874_21#
+ a_416_n344# a_n932_118# a_n158_483# a_n874_386#
X0 a_100_118# a_n100_21# a_n158_118# w_n968_18# sky130_fd_pr__pfet_01v8_lvt ad=2.9e+11p pd=2.58e+06u as=2.9e+11p ps=2.58e+06u w=1e+06u l=1e+06u
X1 a_n158_483# a_n358_386# a_n416_483# w_n968_383# sky130_fd_pr__pfet_01v8_lvt ad=2.9e+11p pd=2.58e+06u as=2.9e+11p ps=2.58e+06u w=1e+06u l=1e+06u
X2 a_874_483# a_674_386# a_616_483# w_n968_383# sky130_fd_pr__pfet_01v8_lvt ad=2.9e+11p pd=2.58e+06u as=2.9e+11p ps=2.58e+06u w=1e+06u l=1e+06u
X3 a_874_n247# a_674_n344# a_616_n247# w_n968_n347# sky130_fd_pr__pfet_01v8_lvt ad=2.9e+11p pd=2.58e+06u as=2.9e+11p ps=2.58e+06u w=1e+06u l=1e+06u
X4 a_874_n612# a_674_n709# a_616_n612# w_n968_n712# sky130_fd_pr__pfet_01v8_lvt ad=2.9e+11p pd=2.58e+06u as=2.9e+11p ps=2.58e+06u w=1e+06u l=1e+06u
X5 a_100_483# a_n100_386# a_n158_483# w_n968_383# sky130_fd_pr__pfet_01v8_lvt ad=2.9e+11p pd=2.58e+06u as=0p ps=0u w=1e+06u l=1e+06u
X6 a_n674_118# a_n874_21# a_n932_118# w_n968_18# sky130_fd_pr__pfet_01v8_lvt ad=2.9e+11p pd=2.58e+06u as=2.9e+11p ps=2.58e+06u w=1e+06u l=1e+06u
X7 a_616_118# a_416_21# a_358_118# w_n968_18# sky130_fd_pr__pfet_01v8_lvt ad=2.9e+11p pd=2.58e+06u as=2.9e+11p ps=2.58e+06u w=1e+06u l=1e+06u
X8 a_n674_483# a_n874_386# a_n932_483# w_n968_383# sky130_fd_pr__pfet_01v8_lvt ad=2.9e+11p pd=2.58e+06u as=2.9e+11p ps=2.58e+06u w=1e+06u l=1e+06u
X9 a_100_n247# a_n100_n344# a_n158_n247# w_n968_n347# sky130_fd_pr__pfet_01v8_lvt ad=2.9e+11p pd=2.58e+06u as=2.9e+11p ps=2.58e+06u w=1e+06u l=1e+06u
X10 a_100_n612# a_n100_n709# a_n158_n612# w_n968_n712# sky130_fd_pr__pfet_01v8_lvt ad=2.9e+11p pd=2.58e+06u as=2.9e+11p ps=2.58e+06u w=1e+06u l=1e+06u
X11 a_n416_n247# a_n616_n344# a_n674_n247# w_n968_n347# sky130_fd_pr__pfet_01v8_lvt ad=2.9e+11p pd=2.58e+06u as=2.9e+11p ps=2.58e+06u w=1e+06u l=1e+06u
X12 a_n416_n612# a_n616_n709# a_n674_n612# w_n968_n712# sky130_fd_pr__pfet_01v8_lvt ad=2.9e+11p pd=2.58e+06u as=2.9e+11p ps=2.58e+06u w=1e+06u l=1e+06u
X13 a_616_483# a_416_386# a_358_483# w_n968_383# sky130_fd_pr__pfet_01v8_lvt ad=0p pd=0u as=2.9e+11p ps=2.58e+06u w=1e+06u l=1e+06u
X14 a_n158_n247# a_n358_n344# a_n416_n247# w_n968_n347# sky130_fd_pr__pfet_01v8_lvt ad=0p pd=0u as=0p ps=0u w=1e+06u l=1e+06u