* NGSPICE file created from user_analog_project_wrapper.ext - technology: sky130A

.subckt sky130_fd_pr__nfet_01v8_lvt_MH9Y6H a_n260_n274#
X0 a_100_n100# a_n100_n188# a_n158_n100# a_n260_n274# sky130_fd_pr__nfet_01v8_lvt ad=2.9e+11p pd=2.58e+06u as=2.9e+11p ps=2.58e+06u w=1e+06u l=1e+06u
.ends

.subckt inductor_differential m3_24571780_11392560# VSUBS
Xsky130_fd_pr__nfet_01v8_lvt_MH9Y6H_0 VSUBS sky130_fd_pr__nfet_01v8_lvt_MH9Y6H
.ends

.subckt sky130_fd_pr__nfet_01v8_lvt_WKNS5B a_n250_n90# a_n280_n120# a_n342_n90# VSUBS
X0 a_n342_n90# a_n280_n120# a_n250_n90# VSUBS sky130_fd_pr__nfet_01v8_lvt ad=1.3e+12p pd=1.06e+07u as=1.3e+12p ps=1.06e+07u w=1e+06u l=150000u
X1 a_n250_n90# a_n280_n120# a_n342_n90# VSUBS sky130_fd_pr__nfet_01v8_lvt ad=0p pd=0u as=0p ps=0u w=1e+06u l=150000u
X2 a_n250_n90# a_n280_n120# a_n342_n90# VSUBS sky130_fd_pr__nfet_01v8_lvt ad=0p pd=0u as=0p ps=0u w=1e+06u l=150000u
X3 a_n342_n90# a_n280_n120# a_n250_n90# VSUBS sky130_fd_pr__nfet_01v8_lvt ad=0p pd=0u as=0p ps=0u w=1e+06u l=150000u
X4 a_n250_n90# a_n280_n120# a_n342_n90# VSUBS sky130_fd_pr__nfet_01v8_lvt ad=0p pd=0u as=0p ps=0u w=1e+06u l=150000u
X5 a_n250_n90# a_n280_n120# a_n342_n90# VSUBS sky130_fd_pr__nfet_01v8_lvt ad=0p pd=0u as=0p ps=0u w=1e+06u l=150000u
X6 a_n342_n90# a_n280_n120# a_n250_n90# VSUBS sky130_fd_pr__nfet_01v8_lvt ad=0p pd=0u as=0p ps=0u w=1e+06u l=150000u
.ends

.subckt sky130_fd_pr__nfet_01v8_lvt_YTLFGX#0 a_n946_n188# a_n1092_n274# a_n990_n100#
+ a_n898_n100#
X0 a_n898_n100# a_n946_n188# a_n990_n100# a_n1092_n274# sky130_fd_pr__nfet_01v8_lvt ad=3.3e+12p pd=2.66e+07u as=3.59e+12p ps=2.918e+07u w=1e+06u l=150000u
X1 a_n898_n100# a_n946_n188# a_n990_n100# a_n1092_n274# sky130_fd_pr__nfet_01v8_lvt ad=0p pd=0u as=0p ps=0u w=1e+06u l=150000u
X2 a_n990_n100# a_n946_n188# a_n898_n100# a_n1092_n274# sky130_fd_pr__nfet_01v8_lvt ad=0p pd=0u as=0p ps=0u w=1e+06u l=150000u
X3 a_n898_n100# a_n946_n188# a_n990_n100# a_n1092_n274# sky130_fd_pr__nfet_01v8_lvt ad=0p pd=0u as=0p ps=0u w=1e+06u l=150000u
X4 a_n990_n100# a_n946_n188# a_n898_n100# a_n1092_n274# sky130_fd_pr__nfet_01v8_lvt ad=0p pd=0u as=0p ps=0u w=1e+06u l=150000u
X5 a_n898_n100# a_n946_n188# a_n990_n100# a_n1092_n274# sky130_fd_pr__nfet_01v8_lvt ad=0p pd=0u as=0p ps=0u w=1e+06u l=150000u
X6 a_n990_n100# a_n946_n188# a_n898_n100# a_n1092_n274# sky130_fd_pr__nfet_01v8_lvt ad=0p pd=0u as=0p ps=0u w=1e+06u l=150000u
X7 a_n990_n100# a_n946_n188# a_n898_n100# a_n1092_n274# sky130_fd_pr__nfet_01v8_lvt ad=0p pd=0u as=0p ps=0u w=1e+06u l=150000u
X8 a_n898_n100# a_n946_n188# a_n990_n100# a_n1092_n274# sky130_fd_pr__nfet_01v8_lvt ad=0p pd=0u as=0p ps=0u w=1e+06u l=150000u
X9 a_n990_n100# a_n946_n188# a_n898_n100# a_n1092_n274# sky130_fd_pr__nfet_01v8_lvt ad=0p pd=0u as=0p ps=0u w=1e+06u l=150000u
X10 a_n898_n100# a_n946_n188# a_n990_n100# a_n1092_n274# sky130_fd_pr__nfet_01v8_lvt ad=0p pd=0u as=0p ps=0u w=1e+06u l=150000u
X11 a_n990_n100# a_n946_n188# a_n898_n100# a_n1092_n274# sky130_fd_pr__nfet_01v8_lvt ad=0p pd=0u as=0p ps=0u w=1e+06u l=150000u
X12 a_n990_n100# a_n946_n188# a_n898_n100# a_n1092_n274# sky130_fd_pr__nfet_01v8_lvt ad=0p pd=0u as=0p ps=0u w=1e+06u l=150000u
X13 a_n898_n100# a_n946_n188# a_n990_n100# a_n1092_n274# sky130_fd_pr__nfet_01v8_lvt ad=0p pd=0u as=0p ps=0u w=1e+06u l=150000u
X14 a_n990_n100# a_n946_n188# a_n898_n100# a_n1092_n274# sky130_fd_pr__nfet_01v8_lvt ad=0p pd=0u as=0p ps=0u w=1e+06u l=150000u
X15 a_n898_n100# a_n946_n188# a_n990_n100# a_n1092_n274# sky130_fd_pr__nfet_01v8_lvt ad=0p pd=0u as=0p ps=0u w=1e+06u l=150000u
X16 a_n898_n100# a_n946_n188# a_n990_n100# a_n1092_n274# sky130_fd_pr__nfet_01v8_lvt ad=0p pd=0u as=0p ps=0u w=1e+06u l=150000u
X17 a_n990_n100# a_n946_n188# a_n898_n100# a_n1092_n274# sky130_fd_pr__nfet_01v8_lvt ad=0p pd=0u as=0p ps=0u w=1e+06u l=150000u
X18 a_n990_n100# a_n946_n188# a_n898_n100# a_n1092_n274# sky130_fd_pr__nfet_01v8_lvt ad=0p pd=0u as=0p ps=0u w=1e+06u l=150000u
X19 a_n898_n100# a_n946_n188# a_n990_n100# a_n1092_n274# sky130_fd_pr__nfet_01v8_lvt ad=0p pd=0u as=0p ps=0u w=1e+06u l=150000u
.ends

.subckt oscillator_core m1_7086_2470# VSS cap2 cap1
XXM12 m2_5320_n1360# cap1 cap2 VSS sky130_fd_pr__nfet_01v8_lvt_WKNS5B
XXM23 m1_7086_2470# VSS m2_5320_n1360# VSS sky130_fd_pr__nfet_01v8_lvt_YTLFGX#0
XXM13 cap2 cap1 m2_5320_n1360# VSS sky130_fd_pr__nfet_01v8_lvt_WKNS5B
XXM14 m2_5320_n1360# cap1 cap2 VSS sky130_fd_pr__nfet_01v8_lvt_WKNS5B
XXM24 m1_7086_2470# VSS m2_5320_n1360# VSS sky130_fd_pr__nfet_01v8_lvt_YTLFGX#0
XXM25 m1_7086_2470# VSS m2_5320_n1360# VSS sky130_fd_pr__nfet_01v8_lvt_YTLFGX#0
XXM15 cap2 cap1 m2_5320_n1360# VSS sky130_fd_pr__nfet_01v8_lvt_WKNS5B
XXM26 m1_7086_2470# VSS m2_5320_n1360# VSS sky130_fd_pr__nfet_01v8_lvt_YTLFGX#0
XXM16 cap2 cap1 m2_5320_n1360# VSS sky130_fd_pr__nfet_01v8_lvt_WKNS5B
XXM27 m1_7086_2470# VSS m2_5320_n1360# VSS sky130_fd_pr__nfet_01v8_lvt_YTLFGX#0
XXM17 m2_5320_n1360# cap1 cap2 VSS sky130_fd_pr__nfet_01v8_lvt_WKNS5B
XXM28 m1_7086_2470# VSS m2_5320_n1360# VSS sky130_fd_pr__nfet_01v8_lvt_YTLFGX#0
XXM18 cap2 cap1 m2_5320_n1360# VSS sky130_fd_pr__nfet_01v8_lvt_WKNS5B
XXM19 m2_5320_n1360# cap2 cap1 VSS sky130_fd_pr__nfet_01v8_lvt_WKNS5B
XXM1 cap1 cap2 m2_5320_n1360# VSS sky130_fd_pr__nfet_01v8_lvt_WKNS5B
XXM2 m2_5320_n1360# cap2 cap1 VSS sky130_fd_pr__nfet_01v8_lvt_WKNS5B
XXM3 cap1 cap2 m2_5320_n1360# VSS sky130_fd_pr__nfet_01v8_lvt_WKNS5B
XXM4 m2_5320_n1360# cap2 cap1 VSS sky130_fd_pr__nfet_01v8_lvt_WKNS5B
XXM5 cap1 cap2 m2_5320_n1360# VSS sky130_fd_pr__nfet_01v8_lvt_WKNS5B
XXM6 cap1 cap2 m2_5320_n1360# VSS sky130_fd_pr__nfet_01v8_lvt_WKNS5B
Xsky130_fd_pr__nfet_01v8_lvt_WKNS5B_1 cap1 cap2 m2_5320_n1360# VSS sky130_fd_pr__nfet_01v8_lvt_WKNS5B
XXM7 m2_5320_n1360# cap2 cap1 VSS sky130_fd_pr__nfet_01v8_lvt_WKNS5B
XXM8 cap1 cap2 m2_5320_n1360# VSS sky130_fd_pr__nfet_01v8_lvt_WKNS5B
XXM9 m2_5320_n1360# cap1 cap2 VSS sky130_fd_pr__nfet_01v8_lvt_WKNS5B
XXM10 cap2 cap1 m2_5320_n1360# VSS sky130_fd_pr__nfet_01v8_lvt_WKNS5B
XXM21 m1_7086_2470# VSS m2_5320_n1360# VSS sky130_fd_pr__nfet_01v8_lvt_YTLFGX#0
XXM11 cap2 cap1 m2_5320_n1360# VSS sky130_fd_pr__nfet_01v8_lvt_WKNS5B
XXM22 m1_7086_2470# VSS m2_5320_n1360# VSS sky130_fd_pr__nfet_01v8_lvt_YTLFGX#0
.ends

.subckt sky130_fd_pr__pfet_01v8_lvt_4Q3NH3 a_n100_n198# a_n30_n101# w_n296_n320# a_n158_n101#
X0 a_n30_n101# a_n100_n198# a_n158_n101# w_n296_n320# sky130_fd_pr__pfet_01v8_lvt ad=2.9e+11p pd=2.58e+06u as=5.8e+11p ps=5.16e+06u w=1e+06u l=350000u
X1 a_n158_n101# a_n100_n198# a_n30_n101# w_n296_n320# sky130_fd_pr__pfet_01v8_lvt ad=0p pd=0u as=0p ps=0u w=1e+06u l=350000u
.ends

.subckt sky130_fd_pr__nfet_01v8_lvt_YTLFGX a_n946_n188# a_n1092_n274# a_n990_n100#
+ a_n898_n100#
X0 a_n898_n100# a_n946_n188# a_n990_n100# a_n1092_n274# sky130_fd_pr__nfet_01v8_lvt ad=3.3e+12p pd=2.66e+07u as=3.59e+12p ps=2.918e+07u w=1e+06u l=150000u
X1 a_n898_n100# a_n946_n188# a_n990_n100# a_n1092_n274# sky130_fd_pr__nfet_01v8_lvt ad=0p pd=0u as=0p ps=0u w=1e+06u l=150000u
X2 a_n990_n100# a_n946_n188# a_n898_n100# a_n1092_n274# sky130_fd_pr__nfet_01v8_lvt ad=0p pd=0u as=0p ps=0u w=1e+06u l=150000u
X3 a_n898_n100# a_n946_n188# a_n990_n100# a_n1092_n274# sky130_fd_pr__nfet_01v8_lvt ad=0p pd=0u as=0p ps=0u w=1e+06u l=150000u
X4 a_n990_n100# a_n946_n188# a_n898_n100# a_n1092_n274# sky130_fd_pr__nfet_01v8_lvt ad=0p pd=0u as=0p ps=0u w=1e+06u l=150000u
X5 a_n898_n100# a_n946_n188# a_n990_n100# a_n1092_n274# sky130_fd_pr__nfet_01v8_lvt ad=0p pd=0u as=0p ps=0u w=1e+06u l=150000u
X6 a_n990_n100# a_n946_n188# a_n898_n100# a_n1092_n274# sky130_fd_pr__nfet_01v8_lvt ad=0p pd=0u as=0p ps=0u w=1e+06u l=150000u
X7 a_n990_n100# a_n946_n188# a_n898_n100# a_n1092_n274# sky130_fd_pr__nfet_01v8_lvt ad=0p pd=0u as=0p ps=0u w=1e+06u l=150000u
X8 a_n898_n100# a_n946_n188# a_n990_n100# a_n1092_n274# sky130_fd_pr__nfet_01v8_lvt ad=0p pd=0u as=0p ps=0u w=1e+06u l=150000u
X9 a_n990_n100# a_n946_n188# a_n898_n100# a_n1092_n274# sky130_fd_pr__nfet_01v8_lvt ad=0p pd=0u as=0p ps=0u w=1e+06u l=150000u
X10 a_n898_n100# a_n946_n188# a_n990_n100# a_n1092_n274# sky130_fd_pr__nfet_01v8_lvt ad=0p pd=0u as=0p ps=0u w=1e+06u l=150000u
X11 a_n990_n100# a_n946_n188# a_n898_n100# a_n1092_n274# sky130_fd_pr__nfet_01v8_lvt ad=0p pd=0u as=0p ps=0u w=1e+06u l=150000u
X12 a_n990_n100# a_n946_n188# a_n898_n100# a_n1092_n274# sky130_fd_pr__nfet_01v8_lvt ad=0p pd=0u as=0p ps=0u w=1e+06u l=150000u
X13 a_n898_n100# a_n946_n188# a_n990_n100# a_n1092_n274# sky130_fd_pr__nfet_01v8_lvt ad=0p pd=0u as=0p ps=0u w=1e+06u l=150000u
X14 a_n990_n100# a_n946_n188# a_n898_n100# a_n1092_n274# sky130_fd_pr__nfet_01v8_lvt ad=0p pd=0u as=0p ps=0u w=1e+06u l=150000u
X15 a_n898_n100# a_n946_n188# a_n990_n100# a_n1092_n274# sky130_fd_pr__nfet_01v8_lvt ad=0p pd=0u as=0p ps=0u w=1e+06u l=150000u
X16 a_n898_n100# a_n946_n188# a_n990_n100# a_n1092_n274# sky130_fd_pr__nfet_01v8_lvt ad=0p pd=0u as=0p ps=0u w=1e+06u l=150000u
X17 a_n990_n100# a_n946_n188# a_n898_n100# a_n1092_n274# sky130_fd_pr__nfet_01v8_lvt ad=0p pd=0u as=0p ps=0u w=1e+06u l=150000u
X18 a_n990_n100# a_n946_n188# a_n898_n100# a_n1092_n274# sky130_fd_pr__nfet_01v8_lvt ad=0p pd=0u as=0p ps=0u w=1e+06u l=150000u
X19 a_n898_n100# a_n946_n188# a_n990_n100# a_n1092_n274# sky130_fd_pr__nfet_01v8_lvt ad=0p pd=0u as=0p ps=0u w=1e+06u l=150000u
.ends

.subckt sky130_fd_pr__nfet_01v8_lvt_A33GGX a_n2052_n274# a_n1906_n188# a_n1950_n100#
+ a_n1858_n100#
X0 a_n1858_n100# a_n1906_n188# a_n1950_n100# a_n2052_n274# sky130_fd_pr__nfet_01v8_lvt ad=6.6e+12p pd=5.32e+07u as=6.89e+12p ps=5.578e+07u w=1e+06u l=150000u
X1 a_n1858_n100# a_n1906_n188# a_n1950_n100# a_n2052_n274# sky130_fd_pr__nfet_01v8_lvt ad=0p pd=0u as=0p ps=0u w=1e+06u l=150000u
X2 a_n1950_n100# a_n1906_n188# a_n1858_n100# a_n2052_n274# sky130_fd_pr__nfet_01v8_lvt ad=0p pd=0u as=0p ps=0u w=1e+06u l=150000u
X3 a_n1858_n100# a_n1906_n188# a_n1950_n100# a_n2052_n274# sky130_fd_pr__nfet_01v8_lvt ad=0p pd=0u as=0p ps=0u w=1e+06u l=150000u
X4 a_n1950_n100# a_n1906_n188# a_n1858_n100# a_n2052_n274# sky130_fd_pr__nfet_01v8_lvt ad=0p pd=0u as=0p ps=0u w=1e+06u l=150000u
X5 a_n1950_n100# a_n1906_n188# a_n1858_n100# a_n2052_n274# sky130_fd_pr__nfet_01v8_lvt ad=0p pd=0u as=0p ps=0u w=1e+06u l=150000u
X6 a_n1858_n100# a_n1906_n188# a_n1950_n100# a_n2052_n274# sky130_fd_pr__nfet_01v8_lvt ad=0p pd=0u as=0p ps=0u w=1e+06u l=150000u
X7 a_n1858_n100# a_n1906_n188# a_n1950_n100# a_n2052_n274# sky130_fd_pr__nfet_01v8_lvt ad=0p pd=0u as=0p ps=0u w=1e+06u l=150000u
X8 a_n1950_n100# a_n1906_n188# a_n1858_n100# a_n2052_n274# sky130_fd_pr__nfet_01v8_lvt ad=0p pd=0u as=0p ps=0u w=1e+06u l=150000u
X9 a_n1858_n100# a_n1906_n188# a_n1950_n100# a_n2052_n274# sky130_fd_pr__nfet_01v8_lvt ad=0p pd=0u as=0p ps=0u w=1e+06u l=150000u
X10 a_n1950_n100# a_n1906_n188# a_n1858_n100# a_n2052_n274# sky130_fd_pr__nfet_01v8_lvt ad=0p pd=0u as=0p ps=0u w=1e+06u l=150000u
X11 a_n1858_n100# a_n1906_n188# a_n1950_n100# a_n2052_n274# sky130_fd_pr__nfet_01v8_lvt ad=0p pd=0u as=0p ps=0u w=1e+06u l=150000u
X12 a_n1950_n100# a_n1906_n188# a_n1858_n100# a_n2052_n274# sky130_fd_pr__nfet_01v8_lvt ad=0p pd=0u as=0p ps=0u w=1e+06u l=150000u
X13 a_n1950_n100# a_n1906_n188# a_n1858_n100# a_n2052_n274# sky130_fd_pr__nfet_01v8_lvt ad=0p pd=0u as=0p ps=0u w=1e+06u l=150000u
X14 a_n1858_n100# a_n1906_n188# a_n1950_n100# a_n2052_n274# sky130_fd_pr__nfet_01v8_lvt ad=0p pd=0u as=0p ps=0u w=1e+06u l=150000u
X15 a_n1858_n100# a_n1906_n188# a_n1950_n100# a_n2052_n274# sky130_fd_pr__nfet_01v8_lvt ad=0p pd=0u as=0p ps=0u w=1e+06u l=150000u
X16 a_n1950_n100# a_n1906_n188# a_n1858_n100# a_n2052_n274# sky130_fd_pr__nfet_01v8_lvt ad=0p pd=0u as=0p ps=0u w=1e+06u l=150000u
X17 a_n1950_n100# a_n1906_n188# a_n1858_n100# a_n2052_n274# sky130_fd_pr__nfet_01v8_lvt ad=0p pd=0u as=0p ps=0u w=1e+06u l=150000u
X18 a_n1950_n100# a_n1906_n188# a_n1858_n100# a_n2052_n274# sky130_fd_pr__nfet_01v8_lvt ad=0p pd=0u as=0p ps=0u w=1e+06u l=150000u
X19 a_n1858_n100# a_n1906_n188# a_n1950_n100# a_n2052_n274# sky130_fd_pr__nfet_01v8_lvt ad=0p pd=0u as=0p ps=0u w=1e+06u l=150000u
X20 a_n1858_n100# a_n1906_n188# a_n1950_n100# a_n2052_n274# sky130_fd_pr__nfet_01v8_lvt ad=0p pd=0u as=0p ps=0u w=1e+06u l=150000u
X21 a_n1950_n100# a_n1906_n188# a_n1858_n100# a_n2052_n274# sky130_fd_pr__nfet_01v8_lvt ad=0p pd=0u as=0p ps=0u w=1e+06u l=150000u
X22 a_n1950_n100# a_n1906_n188# a_n1858_n100# a_n2052_n274# sky130_fd_pr__nfet_01v8_lvt ad=0p pd=0u as=0p ps=0u w=1e+06u l=150000u
X23 a_n1858_n100# a_n1906_n188# a_n1950_n100# a_n2052_n274# sky130_fd_pr__nfet_01v8_lvt ad=0p pd=0u as=0p ps=0u w=1e+06u l=150000u
X24 a_n1858_n100# a_n1906_n188# a_n1950_n100# a_n2052_n274# sky130_fd_pr__nfet_01v8_lvt ad=0p pd=0u as=0p ps=0u w=1e+06u l=150000u
X25 a_n1950_n100# a_n1906_n188# a_n1858_n100# a_n2052_n274# sky130_fd_pr__nfet_01v8_lvt ad=0p pd=0u as=0p ps=0u w=1e+06u l=150000u
X26 a_n1858_n100# a_n1906_n188# a_n1950_n100# a_n2052_n274# sky130_fd_pr__nfet_01v8_lvt ad=0p pd=0u as=0p ps=0u w=1e+06u l=150000u
X27 a_n1950_n100# a_n1906_n188# a_n1858_n100# a_n2052_n274# sky130_fd_pr__nfet_01v8_lvt ad=0p pd=0u as=0p ps=0u w=1e+06u l=150000u
X28 a_n1950_n100# a_n1906_n188# a_n1858_n100# a_n2052_n274# sky130_fd_pr__nfet_01v8_lvt ad=0p pd=0u as=0p ps=0u w=1e+06u l=150000u
X29 a_n1858_n100# a_n1906_n188# a_n1950_n100# a_n2052_n274# sky130_fd_pr__nfet_01v8_lvt ad=0p pd=0u as=0p ps=0u w=1e+06u l=150000u
X30 a_n1950_n100# a_n1906_n188# a_n1858_n100# a_n2052_n274# sky130_fd_pr__nfet_01v8_lvt ad=0p pd=0u as=0p ps=0u w=1e+06u l=150000u
X31 a_n1858_n100# a_n1906_n188# a_n1950_n100# a_n2052_n274# sky130_fd_pr__nfet_01v8_lvt ad=0p pd=0u as=0p ps=0u w=1e+06u l=150000u
X32 a_n1858_n100# a_n1906_n188# a_n1950_n100# a_n2052_n274# sky130_fd_pr__nfet_01v8_lvt ad=0p pd=0u as=0p ps=0u w=1e+06u l=150000u
X33 a_n1950_n100# a_n1906_n188# a_n1858_n100# a_n2052_n274# sky130_fd_pr__nfet_01v8_lvt ad=0p pd=0u as=0p ps=0u w=1e+06u l=150000u
X34 a_n1950_n100# a_n1906_n188# a_n1858_n100# a_n2052_n274# sky130_fd_pr__nfet_01v8_lvt ad=0p pd=0u as=0p ps=0u w=1e+06u l=150000u
X35 a_n1858_n100# a_n1906_n188# a_n1950_n100# a_n2052_n274# sky130_fd_pr__nfet_01v8_lvt ad=0p pd=0u as=0p ps=0u w=1e+06u l=150000u
X36 a_n1858_n100# a_n1906_n188# a_n1950_n100# a_n2052_n274# sky130_fd_pr__nfet_01v8_lvt ad=0p pd=0u as=0p ps=0u w=1e+06u l=150000u
X37 a_n1950_n100# a_n1906_n188# a_n1858_n100# a_n2052_n274# sky130_fd_pr__nfet_01v8_lvt ad=0p pd=0u as=0p ps=0u w=1e+06u l=150000u
X38 a_n1950_n100# a_n1906_n188# a_n1858_n100# a_n2052_n274# sky130_fd_pr__nfet_01v8_lvt ad=0p pd=0u as=0p ps=0u w=1e+06u l=150000u
X39 a_n1858_n100# a_n1906_n188# a_n1950_n100# a_n2052_n274# sky130_fd_pr__nfet_01v8_lvt ad=0p pd=0u as=0p ps=0u w=1e+06u l=150000u
.ends

.subckt sky130_fd_pr__nfet_01v8_lvt_LELFGX a_n2866_n188# a_n3012_n274# a_n2910_n100#
+ a_n2818_n100#
X0 a_n2818_n100# a_n2866_n188# a_n2910_n100# a_n3012_n274# sky130_fd_pr__nfet_01v8_lvt ad=9.9e+12p pd=7.98e+07u as=1.019e+13p ps=8.238e+07u w=1e+06u l=150000u
X1 a_n2818_n100# a_n2866_n188# a_n2910_n100# a_n3012_n274# sky130_fd_pr__nfet_01v8_lvt ad=0p pd=0u as=0p ps=0u w=1e+06u l=150000u
X2 a_n2910_n100# a_n2866_n188# a_n2818_n100# a_n3012_n274# sky130_fd_pr__nfet_01v8_lvt ad=0p pd=0u as=0p ps=0u w=1e+06u l=150000u
X3 a_n2818_n100# a_n2866_n188# a_n2910_n100# a_n3012_n274# sky130_fd_pr__nfet_01v8_lvt ad=0p pd=0u as=0p ps=0u w=1e+06u l=150000u
X4 a_n2910_n100# a_n2866_n188# a_n2818_n100# a_n3012_n274# sky130_fd_pr__nfet_01v8_lvt ad=0p pd=0u as=0p ps=0u w=1e+06u l=150000u
X5 a_n2910_n100# a_n2866_n188# a_n2818_n100# a_n3012_n274# sky130_fd_pr__nfet_01v8_lvt ad=0p pd=0u as=0p ps=0u w=1e+06u l=150000u
X6 a_n2818_n100# a_n2866_n188# a_n2910_n100# a_n3012_n274# sky130_fd_pr__nfet_01v8_lvt ad=0p pd=0u as=0p ps=0u w=1e+06u l=150000u
X7 a_n2818_n100# a_n2866_n188# a_n2910_n100# a_n3012_n274# sky130_fd_pr__nfet_01v8_lvt ad=0p pd=0u as=0p ps=0u w=1e+06u l=150000u
X8 a_n2910_n100# a_n2866_n188# a_n2818_n100# a_n3012_n274# sky130_fd_pr__nfet_01v8_lvt ad=0p pd=0u as=0p ps=0u w=1e+06u l=150000u
X9 a_n2818_n100# a_n2866_n188# a_n2910_n100# a_n3012_n274# sky130_fd_pr__nfet_01v8_lvt ad=0p pd=0u as=0p ps=0u w=1e+06u l=150000u
X10 a_n2910_n100# a_n2866_n188# a_n2818_n100# a_n3012_n274# sky130_fd_pr__nfet_01v8_lvt ad=0p pd=0u as=0p ps=0u w=1e+06u l=150000u
X11 a_n2818_n100# a_n2866_n188# a_n2910_n100# a_n3012_n274# sky130_fd_pr__nfet_01v8_lvt ad=0p pd=0u as=0p ps=0u w=1e+06u l=150000u
X12 a_n2910_n100# a_n2866_n188# a_n2818_n100# a_n3012_n274# sky130_fd_pr__nfet_01v8_lvt ad=0p pd=0u as=0p ps=0u w=1e+06u l=150000u
X13 a_n2910_n100# a_n2866_n188# a_n2818_n100# a_n3012_n274# sky130_fd_pr__nfet_01v8_lvt ad=0p pd=0u as=0p ps=0u w=1e+06u l=150000u
X14 a_n2818_n100# a_n2866_n188# a_n2910_n100# a_n3012_n274# sky130_fd_pr__nfet_01v8_lvt ad=0p pd=0u as=0p ps=0u w=1e+06u l=150000u
X15 a_n2910_n100# a_n2866_n188# a_n2818_n100# a_n3012_n274# sky130_fd_pr__nfet_01v8_lvt ad=0p pd=0u as=0p ps=0u w=1e+06u l=150000u
X16 a_n2910_n100# a_n2866_n188# a_n2818_n100# a_n3012_n274# sky130_fd_pr__nfet_01v8_lvt ad=0p pd=0u as=0p ps=0u w=1e+06u l=150000u
X17 a_n2818_n100# a_n2866_n188# a_n2910_n100# a_n3012_n274# sky130_fd_pr__nfet_01v8_lvt ad=0p pd=0u as=0p ps=0u w=1e+06u l=150000u
X18 a_n2818_n100# a_n2866_n188# a_n2910_n100# a_n3012_n274# sky130_fd_pr__nfet_01v8_lvt ad=0p pd=0u as=0p ps=0u w=1e+06u l=150000u
X19 a_n2910_n100# a_n2866_n188# a_n2818_n100# a_n3012_n274# sky130_fd_pr__nfet_01v8_lvt ad=0p pd=0u as=0p ps=0u w=1e+06u l=150000u
X20 a_n2910_n100# a_n2866_n188# a_n2818_n100# a_n3012_n274# sky130_fd_pr__nfet_01v8_lvt ad=0p pd=0u as=0p ps=0u w=1e+06u l=150000u
X21 a_n2818_n100# a_n2866_n188# a_n2910_n100# a_n3012_n274# sky130_fd_pr__nfet_01v8_lvt ad=0p pd=0u as=0p ps=0u w=1e+06u l=150000u
X22 a_n2818_n100# a_n2866_n188# a_n2910_n100# a_n3012_n274# sky130_fd_pr__nfet_01v8_lvt ad=0p pd=0u as=0p ps=0u w=1e+06u l=150000u
X23 a_n2910_n100# a_n2866_n188# a_n2818_n100# a_n3012_n274# sky130_fd_pr__nfet_01v8_lvt ad=0p pd=0u as=0p ps=0u w=1e+06u l=150000u
X24 a_n2818_n100# a_n2866_n188# a_n2910_n100# a_n3012_n274# sky130_fd_pr__nfet_01v8_lvt ad=0p pd=0u as=0p ps=0u w=1e+06u l=150000u
X25 a_n2910_n100# a_n2866_n188# a_n2818_n100# a_n3012_n274# sky130_fd_pr__nfet_01v8_lvt ad=0p pd=0u as=0p ps=0u w=1e+06u l=150000u
X26 a_n2910_n100# a_n2866_n188# a_n2818_n100# a_n3012_n274# sky130_fd_pr__nfet_01v8_lvt ad=0p pd=0u as=0p ps=0u w=1e+06u l=150000u
X27 a_n2910_n100# a_n2866_n188# a_n2818_n100# a_n3012_n274# sky130_fd_pr__nfet_01v8_lvt ad=0p pd=0u as=0p ps=0u w=1e+06u l=150000u
X28 a_n2818_n100# a_n2866_n188# a_n2910_n100# a_n3012_n274# sky130_fd_pr__nfet_01v8_lvt ad=0p pd=0u as=0p ps=0u w=1e+06u l=150000u
X29 a_n2818_n100# a_n2866_n188# a_n2910_n100# a_n3012_n274# sky130_fd_pr__nfet_01v8_lvt ad=0p pd=0u as=0p ps=0u w=1e+06u l=150000u
X30 a_n2910_n100# a_n2866_n188# a_n2818_n100# a_n3012_n274# sky130_fd_pr__nfet_01v8_lvt ad=0p pd=0u as=0p ps=0u w=1e+06u l=150000u
X31 a_n2910_n100# a_n2866_n188# a_n2818_n100# a_n3012_n274# sky130_fd_pr__nfet_01v8_lvt ad=0p pd=0u as=0p ps=0u w=1e+06u l=150000u
X32 a_n2818_n100# a_n2866_n188# a_n2910_n100# a_n3012_n274# sky130_fd_pr__nfet_01v8_lvt ad=0p pd=0u as=0p ps=0u w=1e+06u l=150000u
X33 a_n2818_n100# a_n2866_n188# a_n2910_n100# a_n3012_n274# sky130_fd_pr__nfet_01v8_lvt ad=0p pd=0u as=0p ps=0u w=1e+06u l=150000u
X34 a_n2818_n100# a_n2866_n188# a_n2910_n100# a_n3012_n274# sky130_fd_pr__nfet_01v8_lvt ad=0p pd=0u as=0p ps=0u w=1e+06u l=150000u
X35 a_n2910_n100# a_n2866_n188# a_n2818_n100# a_n3012_n274# sky130_fd_pr__nfet_01v8_lvt ad=0p pd=0u as=0p ps=0u w=1e+06u l=150000u
X36 a_n2818_n100# a_n2866_n188# a_n2910_n100# a_n3012_n274# sky130_fd_pr__nfet_01v8_lvt ad=0p pd=0u as=0p ps=0u w=1e+06u l=150000u
X37 a_n2910_n100# a_n2866_n188# a_n2818_n100# a_n3012_n274# sky130_fd_pr__nfet_01v8_lvt ad=0p pd=0u as=0p ps=0u w=1e+06u l=150000u
X38 a_n2818_n100# a_n2866_n188# a_n2910_n100# a_n3012_n274# sky130_fd_pr__nfet_01v8_lvt ad=0p pd=0u as=0p ps=0u w=1e+06u l=150000u
X39 a_n2818_n100# a_n2866_n188# a_n2910_n100# a_n3012_n274# sky130_fd_pr__nfet_01v8_lvt ad=0p pd=0u as=0p ps=0u w=1e+06u l=150000u
X40 a_n2910_n100# a_n2866_n188# a_n2818_n100# a_n3012_n274# sky130_fd_pr__nfet_01v8_lvt ad=0p pd=0u as=0p ps=0u w=1e+06u l=150000u
X41 a_n2910_n100# a_n2866_n188# a_n2818_n100# a_n3012_n274# sky130_fd_pr__nfet_01v8_lvt ad=0p pd=0u as=0p ps=0u w=1e+06u l=150000u
X42 a_n2818_n100# a_n2866_n188# a_n2910_n100# a_n3012_n274# sky130_fd_pr__nfet_01v8_lvt ad=0p pd=0u as=0p ps=0u w=1e+06u l=150000u
X43 a_n2818_n100# a_n2866_n188# a_n2910_n100# a_n3012_n274# sky130_fd_pr__nfet_01v8_lvt ad=0p pd=0u as=0p ps=0u w=1e+06u l=150000u
X44 a_n2910_n100# a_n2866_n188# a_n2818_n100# a_n3012_n274# sky130_fd_pr__nfet_01v8_lvt ad=0p pd=0u as=0p ps=0u w=1e+06u l=150000u
X45 a_n2818_n100# a_n2866_n188# a_n2910_n100# a_n3012_n274# sky130_fd_pr__nfet_01v8_lvt ad=0p pd=0u as=0p ps=0u w=1e+06u l=150000u
X46 a_n2910_n100# a_n2866_n188# a_n2818_n100# a_n3012_n274# sky130_fd_pr__nfet_01v8_lvt ad=0p pd=0u as=0p ps=0u w=1e+06u l=150000u
X47 a_n2910_n100# a_n2866_n188# a_n2818_n100# a_n3012_n274# sky130_fd_pr__nfet_01v8_lvt ad=0p pd=0u as=0p ps=0u w=1e+06u l=150000u
X48 a_n2818_n100# a_n2866_n188# a_n2910_n100# a_n3012_n274# sky130_fd_pr__nfet_01v8_lvt ad=0p pd=0u as=0p ps=0u w=1e+06u l=150000u
X49 a_n2910_n100# a_n2866_n188# a_n2818_n100# a_n3012_n274# sky130_fd_pr__nfet_01v8_lvt ad=0p pd=0u as=0p ps=0u w=1e+06u l=150000u
X50 a_n2818_n100# a_n2866_n188# a_n2910_n100# a_n3012_n274# sky130_fd_pr__nfet_01v8_lvt ad=0p pd=0u as=0p ps=0u w=1e+06u l=150000u
X51 a_n2818_n100# a_n2866_n188# a_n2910_n100# a_n3012_n274# sky130_fd_pr__nfet_01v8_lvt ad=0p pd=0u as=0p ps=0u w=1e+06u l=150000u
X52 a_n2910_n100# a_n2866_n188# a_n2818_n100# a_n3012_n274# sky130_fd_pr__nfet_01v8_lvt ad=0p pd=0u as=0p ps=0u w=1e+06u l=150000u
X53 a_n2910_n100# a_n2866_n188# a_n2818_n100# a_n3012_n274# sky130_fd_pr__nfet_01v8_lvt ad=0p pd=0u as=0p ps=0u w=1e+06u l=150000u
X54 a_n2910_n100# a_n2866_n188# a_n2818_n100# a_n3012_n274# sky130_fd_pr__nfet_01v8_lvt ad=0p pd=0u as=0p ps=0u w=1e+06u l=150000u
X55 a_n2818_n100# a_n2866_n188# a_n2910_n100# a_n3012_n274# sky130_fd_pr__nfet_01v8_lvt ad=0p pd=0u as=0p ps=0u w=1e+06u l=150000u
X56 a_n2818_n100# a_n2866_n188# a_n2910_n100# a_n3012_n274# sky130_fd_pr__nfet_01v8_lvt ad=0p pd=0u as=0p ps=0u w=1e+06u l=150000u
X57 a_n2910_n100# a_n2866_n188# a_n2818_n100# a_n3012_n274# sky130_fd_pr__nfet_01v8_lvt ad=0p pd=0u as=0p ps=0u w=1e+06u l=150000u
X58 a_n2910_n100# a_n2866_n188# a_n2818_n100# a_n3012_n274# sky130_fd_pr__nfet_01v8_lvt ad=0p pd=0u as=0p ps=0u w=1e+06u l=150000u
X59 a_n2818_n100# a_n2866_n188# a_n2910_n100# a_n3012_n274# sky130_fd_pr__nfet_01v8_lvt ad=0p pd=0u as=0p ps=0u w=1e+06u l=150000u
.ends

.subckt sky130_fd_pr__nfet_01v8_lvt_648S5X a_n74_n100# a_14_n100# a_n34_n188# a_n176_n274#
X0 a_14_n100# a_n34_n188# a_n74_n100# a_n176_n274# sky130_fd_pr__nfet_01v8_lvt ad=2.9e+11p pd=2.58e+06u as=2.9e+11p ps=2.58e+06u w=1e+06u l=150000u
.ends

.subckt sky130_fd_pr__nfet_01v8_lvt_DJ7QE5 a_n228_n274# a_n126_n100# a_n64_n126# a_n34_n100#
X0 a_n34_n100# a_n64_n126# a_n126_n100# a_n228_n274# sky130_fd_pr__nfet_01v8_lvt ad=3.3e+11p pd=2.66e+06u as=6.2e+11p ps=5.24e+06u w=1e+06u l=150000u
X1 a_n126_n100# a_n64_n126# a_n34_n100# a_n228_n274# sky130_fd_pr__nfet_01v8_lvt ad=0p pd=0u as=0p ps=0u w=1e+06u l=150000u
.ends

.subckt sky130_fd_pr__cap_mim_m3_1_A6B8BZ c1_n1250_n1600# m3_n1350_n1700#
X0 c1_n1250_n1600# m3_n1350_n1700# sky130_fd_pr__cap_mim_m3_1 l=1.6e+07u w=1.2e+07u
.ends

.subckt sky130_fd_pr__nfet_01v8_lvt_HNLS5R a_n324_n274# a_n222_n100# a_n160_n126#
+ a_n130_n100#
X0 a_n130_n100# a_n160_n126# a_n222_n100# a_n324_n274# sky130_fd_pr__nfet_01v8_lvt ad=6.6e+11p pd=5.32e+06u as=9.5e+11p ps=7.9e+06u w=1e+06u l=150000u
X1 a_n222_n100# a_n160_n126# a_n130_n100# a_n324_n274# sky130_fd_pr__nfet_01v8_lvt ad=0p pd=0u as=0p ps=0u w=1e+06u l=150000u
X2 a_n222_n100# a_n160_n126# a_n130_n100# a_n324_n274# sky130_fd_pr__nfet_01v8_lvt ad=0p pd=0u as=0p ps=0u w=1e+06u l=150000u
X3 a_n130_n100# a_n160_n126# a_n222_n100# a_n324_n274# sky130_fd_pr__nfet_01v8_lvt ad=0p pd=0u as=0p ps=0u w=1e+06u l=150000u
.ends

.subckt sky130_fd_pr__nfet_01v8_lvt_B6HS5D a_n318_n100# a_n256_n126# a_n420_n274#
+ a_n226_n100#
X0 a_n226_n100# a_n256_n126# a_n318_n100# a_n420_n274# sky130_fd_pr__nfet_01v8_lvt ad=9.9e+11p pd=7.98e+06u as=1.28e+12p ps=1.056e+07u w=1e+06u l=150000u
X1 a_n318_n100# a_n256_n126# a_n226_n100# a_n420_n274# sky130_fd_pr__nfet_01v8_lvt ad=0p pd=0u as=0p ps=0u w=1e+06u l=150000u
X2 a_n318_n100# a_n256_n126# a_n226_n100# a_n420_n274# sky130_fd_pr__nfet_01v8_lvt ad=0p pd=0u as=0p ps=0u w=1e+06u l=150000u
X3 a_n226_n100# a_n256_n126# a_n318_n100# a_n420_n274# sky130_fd_pr__nfet_01v8_lvt ad=0p pd=0u as=0p ps=0u w=1e+06u l=150000u
X4 a_n226_n100# a_n256_n126# a_n318_n100# a_n420_n274# sky130_fd_pr__nfet_01v8_lvt ad=0p pd=0u as=0p ps=0u w=1e+06u l=150000u
X5 a_n318_n100# a_n256_n126# a_n226_n100# a_n420_n274# sky130_fd_pr__nfet_01v8_lvt ad=0p pd=0u as=0p ps=0u w=1e+06u l=150000u
.ends

.subckt sky130_fd_pr__cap_mim_m3_1_3ZFDVT m3_n450_n500# c1_n350_n400#
X0 c1_n350_n400# m3_n450_n500# sky130_fd_pr__cap_mim_m3_1 l=4e+06u w=3e+06u
.ends

.subckt sky130_fd_pr__cap_mim_m3_1_VCH7EQ c1_n650_n400# m3_n750_n500#
X0 c1_n650_n400# m3_n750_n500# sky130_fd_pr__cap_mim_m3_1 l=4e+06u w=6e+06u
.ends

.subckt sky130_fd_pr__cap_mim_m3_1_MYMY8D c1_n650_n800# m3_n750_n900#
X0 c1_n650_n800# m3_n750_n900# sky130_fd_pr__cap_mim_m3_1 l=8e+06u w=6e+06u
.ends

.subckt sky130_fd_pr__cap_mim_m3_1_CYFFME m3_n1350_n900# c1_n1250_n800#
X0 c1_n1250_n800# m3_n1350_n900# sky130_fd_pr__cap_mim_m3_1 l=8e+06u w=1.2e+07u
.ends

.subckt sky130_fd_pr__nfet_01v8_lvt_9DHFGX a_n612_n274# a_n510_n100# a_n418_n100#
+ a_n466_n188#
X0 a_n510_n100# a_n466_n188# a_n418_n100# a_n612_n274# sky130_fd_pr__nfet_01v8_lvt ad=1.94e+12p pd=1.588e+07u as=1.65e+12p ps=1.33e+07u w=1e+06u l=150000u
X1 a_n418_n100# a_n466_n188# a_n510_n100# a_n612_n274# sky130_fd_pr__nfet_01v8_lvt ad=0p pd=0u as=0p ps=0u w=1e+06u l=150000u
X2 a_n418_n100# a_n466_n188# a_n510_n100# a_n612_n274# sky130_fd_pr__nfet_01v8_lvt ad=0p pd=0u as=0p ps=0u w=1e+06u l=150000u
X3 a_n510_n100# a_n466_n188# a_n418_n100# a_n612_n274# sky130_fd_pr__nfet_01v8_lvt ad=0p pd=0u as=0p ps=0u w=1e+06u l=150000u
X4 a_n510_n100# a_n466_n188# a_n418_n100# a_n612_n274# sky130_fd_pr__nfet_01v8_lvt ad=0p pd=0u as=0p ps=0u w=1e+06u l=150000u
X5 a_n418_n100# a_n466_n188# a_n510_n100# a_n612_n274# sky130_fd_pr__nfet_01v8_lvt ad=0p pd=0u as=0p ps=0u w=1e+06u l=150000u
X6 a_n418_n100# a_n466_n188# a_n510_n100# a_n612_n274# sky130_fd_pr__nfet_01v8_lvt ad=0p pd=0u as=0p ps=0u w=1e+06u l=150000u
X7 a_n510_n100# a_n466_n188# a_n418_n100# a_n612_n274# sky130_fd_pr__nfet_01v8_lvt ad=0p pd=0u as=0p ps=0u w=1e+06u l=150000u
X8 a_n418_n100# a_n466_n188# a_n510_n100# a_n612_n274# sky130_fd_pr__nfet_01v8_lvt ad=0p pd=0u as=0p ps=0u w=1e+06u l=150000u
X9 a_n510_n100# a_n466_n188# a_n418_n100# a_n612_n274# sky130_fd_pr__nfet_01v8_lvt ad=0p pd=0u as=0p ps=0u w=1e+06u l=150000u
.ends

.subckt cap_bank3 m3_14518_n4040# m3_5100_n4040# ctrll5 ctrll4 ctrll2 ctrll3 ctrll1
+ GND
XXM12 ctrll2 GND m2_14442_n2176# m2_12742_n1970# sky130_fd_pr__nfet_01v8_lvt_YTLFGX
XXM13 ctrll3 GND m2_16704_n1564# m2_11726_n1758# sky130_fd_pr__nfet_01v8_lvt_YTLFGX
XXM14 GND ctrll4 m2_18556_n1762# m2_9978_n1770# sky130_fd_pr__nfet_01v8_lvt_A33GGX
XXM15 ctrll5 GND m2_17562_n544# m2_8468_n1256# sky130_fd_pr__nfet_01v8_lvt_LELFGX
XXM1 GND m3_13400_n2830# ctrll1 GND sky130_fd_pr__nfet_01v8_lvt_648S5X
XXM2 GND m2_12742_n1970# ctrll2 GND sky130_fd_pr__nfet_01v8_lvt_DJ7QE5
XXC10 m2_17562_n544# m3_14518_n4040# sky130_fd_pr__cap_mim_m3_1_A6B8BZ
XXM3 GND m2_11726_n1758# ctrll3 GND sky130_fd_pr__nfet_01v8_lvt_HNLS5R
XXM4 GND m2_9978_n1770# ctrll4 GND sky130_fd_pr__nfet_01v8_lvt_HNLS5R
XXM5 GND ctrll5 GND m2_8468_n1256# sky130_fd_pr__nfet_01v8_lvt_B6HS5D
XXM6 GND m3_14648_n2610# ctrll1 GND sky130_fd_pr__nfet_01v8_lvt_648S5X
XXM7 GND m2_14442_n2176# ctrll2 GND sky130_fd_pr__nfet_01v8_lvt_DJ7QE5
XXM9 GND m2_18556_n1762# ctrll4 GND sky130_fd_pr__nfet_01v8_lvt_HNLS5R
XXM8 GND m2_16704_n1564# ctrll3 GND sky130_fd_pr__nfet_01v8_lvt_HNLS5R
XXC1 m3_5100_n4040# m3_13400_n2830# sky130_fd_pr__cap_mim_m3_1_3ZFDVT
XXC2 m2_12742_n1970# m3_5100_n4040# sky130_fd_pr__cap_mim_m3_1_VCH7EQ
XXC3 m2_11726_n1758# m3_5100_n4040# sky130_fd_pr__cap_mim_m3_1_MYMY8D
XXC4 m3_5100_n4040# m2_9978_n1770# sky130_fd_pr__cap_mim_m3_1_CYFFME
XXC5 m2_8468_n1256# m3_5100_n4040# sky130_fd_pr__cap_mim_m3_1_A6B8BZ
XXC7 m2_14442_n2176# m3_14518_n4040# sky130_fd_pr__cap_mim_m3_1_VCH7EQ
XXC6 m3_14518_n4040# m3_14648_n2610# sky130_fd_pr__cap_mim_m3_1_3ZFDVT
XXC8 m2_16704_n1564# m3_14518_n4040# sky130_fd_pr__cap_mim_m3_1_MYMY8D
XXC9 m3_14518_n4040# m2_18556_n1762# sky130_fd_pr__cap_mim_m3_1_CYFFME
XXM10 GND ctrll5 GND m2_17562_n544# sky130_fd_pr__nfet_01v8_lvt_B6HS5D
XXM11 GND m3_13400_n2830# m3_14648_n2610# ctrll1 sky130_fd_pr__nfet_01v8_lvt_9DHFGX
.ends

.subckt sky130_fd_pr__pfet_01v8_lvt_SUM7J6 a_n1502_n319# a_n1680_n432# w_n1768_n538#
+ a_n1630_n319#
X0 a_n1630_n319# a_n1680_n432# a_n1502_n319# w_n1768_n538# sky130_fd_pr__pfet_01v8_lvt ad=7.54e+12p pd=6.708e+07u as=7.54e+12p ps=6.708e+07u w=1e+06u l=350000u
X1 a_n1502_n319# a_n1680_n432# a_n1630_n319# w_n1768_n538# sky130_fd_pr__pfet_01v8_lvt ad=0p pd=0u as=0p ps=0u w=1e+06u l=350000u
X2 a_n1630_n319# a_n1680_n432# a_n1502_n319# w_n1768_n538# sky130_fd_pr__pfet_01v8_lvt ad=0p pd=0u as=0p ps=0u w=1e+06u l=350000u
X3 a_n1502_n319# a_n1680_n432# a_n1630_n319# w_n1768_n538# sky130_fd_pr__pfet_01v8_lvt ad=0p pd=0u as=0p ps=0u w=1e+06u l=350000u
X4 a_n1630_n319# a_n1680_n432# a_n1502_n319# w_n1768_n538# sky130_fd_pr__pfet_01v8_lvt ad=0p pd=0u as=0p ps=0u w=1e+06u l=350000u
X5 a_n1630_n319# a_n1680_n432# a_n1502_n319# w_n1768_n538# sky130_fd_pr__pfet_01v8_lvt ad=0p pd=0u as=0p ps=0u w=1e+06u l=350000u
X6 a_n1630_n319# a_n1680_n432# a_n1502_n319# w_n1768_n538# sky130_fd_pr__pfet_01v8_lvt ad=0p pd=0u as=0p ps=0u w=1e+06u l=350000u