* NGSPICE file created from user_analog_project_wrapper.ext - technology: sky130A

.subckt sky130_fd_pr__nfet_01v8_lvt_648S5X a_n73_n100# a_n33_n188# a_15_n100# a_n175_n274#
X0 a_15_n100# a_n33_n188# a_n73_n100# a_n175_n274# sky130_fd_pr__nfet_01v8_lvt ad=2.9e+11p pd=2.58e+06u as=2.9e+11p ps=2.58e+06u w=1e+06u l=150000u
.ends

.subckt sky130_fd_pr__nfet_01v8_lvt_DJ7QE5 a_15_122# a_n227_n274# a_n125_n100# a_n81_n188#
+ a_63_n100# a_n33_n100#
X0 a_63_n100# a_15_122# a_n33_n100# a_n227_n274# sky130_fd_pr__nfet_01v8_lvt ad=3.1e+11p pd=2.62e+06u as=3.3e+11p ps=2.66e+06u w=1e+06u l=150000u
X1 a_n33_n100# a_n81_n188# a_n125_n100# a_n227_n274# sky130_fd_pr__nfet_01v8_lvt ad=0p pd=0u as=3.1e+11p ps=2.62e+06u w=1e+06u l=150000u
.ends

.subckt sky130_fd_pr__nfet_01v8_lvt_BX7S53 a_n275_n274# a_n173_n100# a_15_n100# a_n33_122#
+ a_111_n100# a_n81_n100# a_n129_n188# a_63_n188#
X0 a_15_n100# a_n33_122# a_n81_n100# a_n275_n274# sky130_fd_pr__nfet_01v8_lvt ad=3.3e+11p pd=2.66e+06u as=3.3e+11p ps=2.66e+06u w=1e+06u l=150000u
X1 a_n81_n100# a_n129_n188# a_n173_n100# a_n275_n274# sky130_fd_pr__nfet_01v8_lvt ad=0p pd=0u as=3.1e+11p ps=2.62e+06u w=1e+06u l=150000u
X2 a_111_n100# a_63_n188# a_15_n100# a_n275_n274# sky130_fd_pr__nfet_01v8_lvt ad=3.1e+11p pd=2.62e+06u as=0p ps=0u w=1e+06u l=150000u
.ends

.subckt sky130_fd_pr__nfet_01v8_lvt_B6HS5D a_159_n100# a_111_n188# a_15_122# a_n273_n188#
+ a_255_n100# a_207_122# a_n129_n100# a_n81_n188# a_63_n100# a_n177_122# a_n225_n100#
+ a_n33_n100# a_n419_n274# a_n317_n100#
X0 a_63_n100# a_15_122# a_n33_n100# a_n419_n274# sky130_fd_pr__nfet_01v8_lvt ad=3.3e+11p pd=2.66e+06u as=3.3e+11p ps=2.66e+06u w=1e+06u l=150000u
X1 a_n33_n100# a_n81_n188# a_n129_n100# a_n419_n274# sky130_fd_pr__nfet_01v8_lvt ad=0p pd=0u as=3.3e+11p ps=2.66e+06u w=1e+06u l=150000u
X2 a_159_n100# a_111_n188# a_63_n100# a_n419_n274# sky130_fd_pr__nfet_01v8_lvt ad=3.3e+11p pd=2.66e+06u as=0p ps=0u w=1e+06u l=150000u
X3 a_255_n100# a_207_122# a_159_n100# a_n419_n274# sky130_fd_pr__nfet_01v8_lvt ad=3.1e+11p pd=2.62e+06u as=0p ps=0u w=1e+06u l=150000u
X4 a_n225_n100# a_n273_n188# a_n317_n100# a_n419_n274# sky130_fd_pr__nfet_01v8_lvt ad=3.3e+11p pd=2.66e+06u as=3.1e+11p ps=2.62e+06u w=1e+06u l=150000u
X5 a_n129_n100# a_n177_122# a_n225_n100# a_n419_n274# sky130_fd_pr__nfet_01v8_lvt ad=0p pd=0u as=0p ps=0u w=1e+06u l=150000u
.ends

.subckt sky130_fd_pr__cap_mim_m3_2_WCTBV5 m4_n551_n300# c2_n451_n200#
X0 c2_n451_n200# m4_n551_n300# sky130_fd_pr__cap_mim_m3_2 l=2e+06u w=2e+06u
.ends

.subckt sky130_fd_pr__cap_mim_m3_2_WCTZRP c2_n551_n200# m4_n651_n300#
X0 c2_n551_n200# m4_n651_n300# sky130_fd_pr__cap_mim_m3_2 l=2e+06u w=3e+06u
.ends

.subckt sky130_fd_pr__cap_mim_m3_2_3ZFDVT c2_n551_n400# m4_n651_n500#
X0 c2_n551_n400# m4_n651_n500# sky130_fd_pr__cap_mim_m3_2 l=4e+06u w=3e+06u
.ends

.subckt sky130_fd_pr__cap_mim_m3_2_VCH7EQ c2_n851_n400# m4_n951_n500#
X0 c2_n851_n400# m4_n951_n500# sky130_fd_pr__cap_mim_m3_2 l=4e+06u w=6e+06u
.ends

.subckt sky130_fd_pr__cap_mim_m3_2_FJFAMD m4_n551_n300# c2_n451_n200#
X0 c2_n451_n200# m4_n551_n300# sky130_fd_pr__cap_mim_m3_2 l=2e+06u w=2e+06u
.ends

.subckt cap_bank GND ctrll1 ctrll2 ctrll3 ctrll4 ctrll5 IN
XXM1 m1_3910_n1320# ctrll1 GND GND sky130_fd_pr__nfet_01v8_lvt_648S5X
XXM2 GND ctrll2 m1_4820_n1420# GND sky130_fd_pr__nfet_01v8_lvt_648S5X
XXM3 ctrll3 GND GND ctrll3 GND m1_4820_n890# sky130_fd_pr__nfet_01v8_lvt_DJ7QE5
XXM4 GND GND GND ctrll4 m1_4820_n460# m1_4820_n460# ctrll4 ctrll4 sky130_fd_pr__nfet_01v8_lvt_BX7S53
XXM5 m1_4700_270# ctrll5 ctrll5 ctrll5 GND ctrll5 GND ctrll5 GND ctrll5 m1_4700_270#
+ m1_4700_270# GND GND sky130_fd_pr__nfet_01v8_lvt_B6HS5D
XXC1 m1_4820_n1420# IN sky130_fd_pr__cap_mim_m3_2_WCTBV5
XXC2 IN m1_4820_n890# sky130_fd_pr__cap_mim_m3_2_WCTZRP
XXC3 IN m1_4820_n460# sky130_fd_pr__cap_mim_m3_2_3ZFDVT
XXC4 IN m1_4700_270# sky130_fd_pr__cap_mim_m3_2_VCH7EQ
XXC6 m1_3910_n1320# IN sky130_fd_pr__cap_mim_m3_2_FJFAMD
.ends

.subckt sky130_fd_pr__res_high_po_2p85_P79JE3 a_n285_n1192# a_n285_760# a_n415_n1322#
X0 a_n285_n1192# a_n285_760# a_n415_n1322# sky130_fd_pr__res_high_po w=2.85e+06u l=7.6e+06u
.ends

.subckt sky130_fd_pr__res_high_po_5p73_W59YBA a_n573_1640# a_n573_n2072# a_n703_n2202#
X0 a_n573_n2072# a_n573_1640# a_n703_n2202# sky130_fd_pr__res_high_po w=5.73e+06u l=1.64e+07u
.ends

.subckt sky130_fd_pr__nfet_01v8_lvt_YTLFGX a_543_n100# a_159_n100# a_n609_n100# a_n705_n100#
+ a_255_n100# a_351_n100# a_n417_n100# a_n801_n100# a_n129_n100# a_n513_n100# a_n989_n100#
+ a_63_n100# a_n225_n100# a_n945_n188# a_927_n100# a_n1091_n274# a_n321_n100# a_639_n100#
+ a_735_n100# a_n33_n100# a_n897_n100# a_831_n100# a_447_n100#
X0 a_63_n100# a_n945_n188# a_n33_n100# a_n1091_n274# sky130_fd_pr__nfet_01v8_lvt ad=3.3e+11p pd=2.66e+06u as=3.3e+11p ps=2.66e+06u w=1e+06u l=150000u
X1 a_927_n100# a_n945_n188# a_831_n100# a_n1091_n274# sky130_fd_pr__nfet_01v8_lvt ad=3.1e+11p pd=2.62e+06u as=3.3e+11p ps=2.66e+06u w=1e+06u l=150000u
X2 a_n33_n100# a_n945_n188# a_n129_n100# a_n1091_n274# sky130_fd_pr__nfet_01v8_lvt ad=0p pd=0u as=3.3e+11p ps=2.66e+06u w=1e+06u l=150000u
X3 a_351_n100# a_n945_n188# a_255_n100# a_n1091_n274# sky130_fd_pr__nfet_01v8_lvt ad=3.3e+11p pd=2.66e+06u as=3.3e+11p ps=2.66e+06u w=1e+06u l=150000u
X4 a_159_n100# a_n945_n188# a_63_n100# a_n1091_n274# sky130_fd_pr__nfet_01v8_lvt ad=3.3e+11p pd=2.66e+06u as=0p ps=0u w=1e+06u l=150000u
X5 a_255_n100# a_n945_n188# a_159_n100# a_n1091_n274# sky130_fd_pr__nfet_01v8_lvt ad=0p pd=0u as=0p ps=0u w=1e+06u l=150000u
X6 a_447_n100# a_n945_n188# a_351_n100# a_n1091_n274# sky130_fd_pr__nfet_01v8_lvt ad=3.3e+11p pd=2.66e+06u as=0p ps=0u w=1e+06u l=150000u
X7 a_543_n100# a_n945_n188# a_447_n100# a_n1091_n274# sky130_fd_pr__nfet_01v8_lvt ad=3.3e+11p pd=2.66e+06u as=0p ps=0u w=1e+06u l=150000u
X8 a_735_n100# a_n945_n188# a_639_n100# a_n1091_n274# sky130_fd_pr__nfet_01v8_lvt ad=3.3e+11p pd=2.66e+06u as=3.3e+11p ps=2.66e+06u w=1e+06u l=150000u
X9 a_831_n100# a_n945_n188# a_735_n100# a_n1091_n274# sky130_fd_pr__nfet_01v8_lvt ad=0p pd=0u as=0p ps=0u w=1e+06u l=150000u
X10 a_639_n100# a_n945_n188# a_543_n100# a_n1091_n274# sky130_fd_pr__nfet_01v8_lvt ad=0p pd=0u as=0p ps=0u w=1e+06u l=150000u
X11 a_n321_n100# a_n945_n188# a_n417_n100# a_n1091_n274# sky130_fd_pr__nfet_01v8_lvt ad=3.3e+11p pd=2.66e+06u as=3.3e+11p ps=2.66e+06u w=1e+06u l=150000u
X12 a_n801_n100# a_n945_n188# a_n897_n100# a_n1091_n274# sky130_fd_pr__nfet_01v8_lvt ad=3.3e+11p pd=2.66e+06u as=3.3e+11p ps=2.66e+06u w=1e+06u l=150000u
X13 a_n705_n100# a_n945_n188# a_n801_n100# a_n1091_n274# sky130_fd_pr__nfet_01v8_lvt ad=3.3e+11p pd=2.66e+06u as=0p ps=0u w=1e+06u l=150000u
X14 a_n513_n100# a_n945_n188# a_n609_n100# a_n1091_n274# sky130_fd_pr__nfet_01v8_lvt ad=3.3e+11p pd=2.66e+06u as=3.3e+11p ps=2.66e+06u w=1e+06u l=150000u
X15 a_n417_n100# a_n945_n188# a_n513_n100# a_n1091_n274# sky130_fd_pr__nfet_01v8_lvt ad=0p pd=0u as=0p ps=0u w=1e+06u l=150000u
X16 a_n225_n100# a_n945_n188# a_n321_n100# a_n1091_n274# sky130_fd_pr__nfet_01v8_lvt ad=3.3e+11p pd=2.66e+06u as=0p ps=0u w=1e+06u l=150000u
X17 a_n129_n100# a_n945_n188# a_n225_n100# a_n1091_n274# sky130_fd_pr__nfet_01v8_lvt ad=0p pd=0u as=0p ps=0u w=1e+06u l=150000u
X18 a_n897_n100# a_n945_n188# a_n989_n100# a_n1091_n274# sky130_fd_pr__nfet_01v8_lvt ad=0p pd=0u as=3.1e+11p ps=2.62e+06u w=1e+06u l=150000u
X19 a_n609_n100# a_n945_n188# a_n705_n100# a_n1091_n274# sky130_fd_pr__nfet_01v8_lvt ad=0p pd=0u as=0p ps=0u w=1e+06u l=150000u
.ends

.subckt sky130_fd_pr__nfet_01v8_lvt_LELFGX a_543_n100# a_n609_n100# a_159_n100# a_1695_n100#
+ a_n2001_122# a_879_122# a_2655_n100# a_n2481_n188# a_n273_122# a_n1953_n100# a_n2097_n188#
+ a_n1569_n100# a_n1521_n188# a_1839_122# a_n2529_n100# a_n1137_n188# a_n705_n100#
+ a_1791_n100# a_n1233_122# a_255_n100# a_975_n188# a_2751_n100# a_2367_n100# a_1407_n100#
+ a_1071_122# a_n1665_n100# a_n2625_n100# a_n2577_122# a_n801_n100# a_351_n100# a_n417_n100#
+ a_2463_n100# a_2079_n100# a_n465_122# a_1503_n100# a_2031_122# a_n1761_n100# a_1119_n100#
+ a_n2721_n100# a_n1377_n100# a_n2337_n100# a_n1425_122# a_n513_n100# a_783_n188#
+ a_n129_n100# a_399_n188# a_2175_n100# a_1263_122# a_1215_n100# a_n1473_n100# a_63_n100#
+ a_1935_n188# a_n2433_n100# a_n1089_n100# a_n2049_n100# a_n2769_122# a_n2909_n100#
+ a_n225_n100# a_2271_n100# a_n657_122# a_n945_n188# a_2223_122# a_927_n100# a_1311_n100#
+ a_n1185_n100# a_n2145_n100# a_495_122# a_n2865_n188# a_n1617_122# a_n3011_n274#
+ a_111_122# a_n321_n100# a_n1905_n188# a_591_n188# a_1455_122# a_639_n100# a_1023_n100#
+ a_207_n188# a_1743_n188# a_n1281_n100# a_1359_n188# a_2703_n188# a_n2241_n100# a_2319_n188#
+ a_n849_122# a_2799_122# a_n753_n188# a_n369_n188# a_2415_122# a_n33_n100# a_735_n100#
+ a_1887_n100# a_n2193_122# a_2847_n100# a_687_122# a_n1809_122# a_303_122# a_n2673_n188#
+ a_n2289_n188# a_n1713_n188# a_n897_n100# a_n1329_n188# a_1647_122# a_831_n100# a_447_n100#
+ a_1983_n100# a_1599_n100# a_1551_n188# a_n1041_122# a_1167_n188# a_2511_n188# a_2559_n100#
+ a_2127_n188# a_n1857_n100# a_n81_122# a_15_n188# a_n2817_n100# a_n993_n100# a_2607_122#
+ a_n561_n188# a_n177_n188# a_n2385_122#
X0 a_63_n100# a_15_n188# a_n33_n100# a_n3011_n274# sky130_fd_pr__nfet_01v8_lvt ad=3.3e+11p pd=2.66e+06u as=3.3e+11p ps=2.66e+06u w=1e+06u l=150000u
X1 a_n2721_n100# a_n2769_122# a_n2817_n100# a_n3011_n274# sky130_fd_pr__nfet_01v8_lvt ad=3.3e+11p pd=2.66e+06u as=3.3e+11p ps=2.66e+06u w=1e+06u l=150000u
X2 a_n2433_n100# a_n2481_n188# a_n2529_n100# a_n3011_n274# sky130_fd_pr__nfet_01v8_lvt ad=3.3e+11p pd=2.66e+06u as=3.3e+11p ps=2.66e+06u w=1e+06u l=150000u
X3 a_n2241_n100# a_n2289_n188# a_n2337_n100# a_n3011_n274# sky130_fd_pr__nfet_01v8_lvt ad=3.3e+11p pd=2.66e+06u as=3.3e+11p ps=2.66e+06u w=1e+06u l=150000u
X4 a_n2145_n100# a_n2193_122# a_n2241_n100# a_n3011_n274# sky130_fd_pr__nfet_01v8_lvt ad=3.3e+11p pd=2.66e+06u as=0p ps=0u w=1e+06u l=150000u
X5 a_n2049_n100# a_n2097_n188# a_n2145_n100# a_n3011_n274# sky130_fd_pr__nfet_01v8_lvt ad=3.3e+11p pd=2.66e+06u as=0p ps=0u w=1e+06u l=150000u
X6 a_n2817_n100# a_n2865_n188# a_n2909_n100# a_n3011_n274# sky130_fd_pr__nfet_01v8_lvt ad=0p pd=0u as=3.1e+11p ps=2.62e+06u w=1e+06u l=150000u
X7 a_n2625_n100# a_n2673_n188# a_n2721_n100# a_n3011_n274# sky130_fd_pr__nfet_01v8_lvt ad=3.3e+11p pd=2.66e+06u as=0p ps=0u w=1e+06u l=150000u
X8 a_n2529_n100# a_n2577_122# a_n2625_n100# a_n3011_n274# sky130_fd_pr__nfet_01v8_lvt ad=0p pd=0u as=0p ps=0u w=1e+06u l=150000u
X9 a_n2337_n100# a_n2385_122# a_n2433_n100# a_n3011_n274# sky130_fd_pr__nfet_01v8_lvt ad=0p pd=0u as=0p ps=0u w=1e+06u l=150000u
X10 a_2175_n100# a_2127_n188# a_2079_n100# a_n3011_n274# sky130_fd_pr__nfet_01v8_lvt ad=3.3e+11p pd=2.66e+06u as=3.3e+11p ps=2.66e+06u w=1e+06u l=150000u
X11 a_2271_n100# a_2223_122# a_2175_n100# a_n3011_n274# sky130_fd_pr__nfet_01v8_lvt ad=3.3e+11p pd=2.66e+06u as=0p ps=0u w=1e+06u l=150000u
X12 a_2463_n100# a_2415_122# a_2367_n100# a_n3011_n274# sky130_fd_pr__nfet_01v8_lvt ad=3.3e+11p pd=2.66e+06u as=3.3e+11p ps=2.66e+06u w=1e+06u l=150000u
X13 a_2751_n100# a_2703_n188# a_2655_n100# a_n3011_n274# sky130_fd_pr__nfet_01v8_lvt ad=3.3e+11p pd=2.66e+06u as=3.3e+11p ps=2.66e+06u w=1e+06u l=150000u
X14 a_2079_n100# a_2031_122# a_1983_n100# a_n3011_n274# sky130_fd_pr__nfet_01v8_lvt ad=0p pd=0u as=3.3e+11p ps=2.66e+06u w=1e+06u l=150000u
X15 a_2367_n100# a_2319_n188# a_2271_n100# a_n3011_n274# sky130_fd_pr__nfet_01v8_lvt ad=0p pd=0u as=0p ps=0u w=1e+06u l=150000u
X16 a_2559_n100# a_2511_n188# a_2463_n100# a_n3011_n274# sky130_fd_pr__nfet_01v8_lvt ad=3.3e+11p pd=2.66e+06u as=0p ps=0u w=1e+06u l=150000u
X17 a_2655_n100# a_2607_122# a_2559_n100# a_n3011_n274# sky130_fd_pr__nfet_01v8_lvt ad=0p pd=0u as=0p ps=0u w=1e+06u l=150000u
X18 a_2847_n100# a_2799_122# a_2751_n100# a_n3011_n274# sky130_fd_pr__nfet_01v8_lvt ad=3.1e+11p pd=2.62e+06u as=0p ps=0u w=1e+06u l=150000u
X19 a_1023_n100# a_975_n188# a_927_n100# a_n3011_n274# sky130_fd_pr__nfet_01v8_lvt ad=3.3e+11p pd=2.66e+06u as=3.3e+11p ps=2.66e+06u w=1e+06u l=150000u
X20 a_927_n100# a_879_122# a_831_n100# a_n3011_n274# sky130_fd_pr__nfet_01v8_lvt ad=0p pd=0u as=3.3e+11p ps=2.66e+06u w=1e+06u l=150000u
X21 a_n1761_n100# a_n1809_122# a_n1857_n100# a_n3011_n274# sky130_fd_pr__nfet_01v8_lvt ad=3.3e+11p pd=2.66e+06u as=3.3e+11p ps=2.66e+06u w=1e+06u l=150000u
X22 a_n1953_n100# a_n2001_122# a_n2049_n100# a_n3011_n274# sky130_fd_pr__nfet_01v8_lvt ad=3.3e+11p pd=2.66e+06u as=0p ps=0u w=1e+06u l=150000u
X23 a_n1857_n100# a_n1905_n188# a_n1953_n100# a_n3011_n274# sky130_fd_pr__nfet_01v8_lvt ad=0p pd=0u as=0p ps=0u w=1e+06u l=150000u
X24 a_n1665_n100# a_n1713_n188# a_n1761_n100# a_n3011_n274# sky130_fd_pr__nfet_01v8_lvt ad=3.3e+11p pd=2.66e+06u as=0p ps=0u w=1e+06u l=150000u
X25 a_n1569_n100# a_n1617_122# a_n1665_n100# a_n3011_n274# sky130_fd_pr__nfet_01v8_lvt ad=3.3e+11p pd=2.66e+06u as=0p ps=0u w=1e+06u l=150000u
X26 a_1215_n100# a_1167_n188# a_1119_n100# a_n3011_n274# sky130_fd_pr__nfet_01v8_lvt ad=3.3e+11p pd=2.66e+06u as=3.3e+11p ps=2.66e+06u w=1e+06u l=150000u
X27 a_1311_n100# a_1263_122# a_1215_n100# a_n3011_n274# sky130_fd_pr__nfet_01v8_lvt ad=3.3e+11p pd=2.66e+06u as=0p ps=0u w=1e+06u l=150000u
X28 a_1503_n100# a_1455_122# a_1407_n100# a_n3011_n274# sky130_fd_pr__nfet_01v8_lvt ad=3.3e+11p pd=2.66e+06u as=3.3e+11p ps=2.66e+06u w=1e+06u l=150000u
X29 a_1791_n100# a_1743_n188# a_1695_n100# a_n3011_n274# sky130_fd_pr__nfet_01v8_lvt ad=3.3e+11p pd=2.66e+06u as=3.3e+11p ps=2.66e+06u w=1e+06u l=150000u
X30 a_1119_n100# a_1071_122# a_1023_n100# a_n3011_n274# sky130_fd_pr__nfet_01v8_lvt ad=0p pd=0u as=0p ps=0u w=1e+06u l=150000u
X31 a_1407_n100# a_1359_n188# a_1311_n100# a_n3011_n274# sky130_fd_pr__nfet_01v8_lvt ad=0p pd=0u as=0p ps=0u w=1e+06u l=150000u
X32 a_1599_n100# a_1551_n188# a_1503_n100# a_n3011_n274# sky130_fd_pr__nfet_01v8_lvt ad=3.3e+11p pd=2.66e+06u as=0p ps=0u w=1e+06u l=150000u
X33 a_1695_n100# a_1647_122# a_1599_n100# a_n3011_n274# sky130_fd_pr__nfet_01v8_lvt ad=0p pd=0u as=0p ps=0u w=1e+06u l=150000u
X34 a_1887_n100# a_1839_122# a_1791_n100# a_n3011_n274# sky130_fd_pr__nfet_01v8_lvt ad=3.3e+11p pd=2.66e+06u as=0p ps=0u w=1e+06u l=150000u
X35 a_1983_n100# a_1935_n188# a_1887_n100# a_n3011_n274# sky130_fd_pr__nfet_01v8_lvt ad=0p pd=0u as=0p ps=0u w=1e+06u l=150000u
X36 a_n33_n100# a_n81_122# a_n129_n100# a_n3011_n274# sky130_fd_pr__nfet_01v8_lvt ad=0p pd=0u as=3.3e+11p ps=2.66e+06u w=1e+06u l=150000u
X37 a_351_n100# a_303_122# a_255_n100# a_n3011_n274# sky130_fd_pr__nfet_01v8_lvt ad=3.3e+11p pd=2.66e+06u as=3.3e+11p ps=2.66e+06u w=1e+06u l=150000u
X38 a_159_n100# a_111_122# a_63_n100# a_n3011_n274# sky130_fd_pr__nfet_01v8_lvt ad=3.3e+11p pd=2.66e+06u as=0p ps=0u w=1e+06u l=150000u
X39 a_255_n100# a_207_n188# a_159_n100# a_n3011_n274# sky130_fd_pr__nfet_01v8_lvt ad=0p pd=0u as=0p ps=0u w=1e+06u l=150000u
X40 a_447_n100# a_399_n188# a_351_n100# a_n3011_n274# sky130_fd_pr__nfet_01v8_lvt ad=3.3e+11p pd=2.66e+06u as=0p ps=0u w=1e+06u l=150000u
X41 a_543_n100# a_495_122# a_447_n100# a_n3011_n274# sky130_fd_pr__nfet_01v8_lvt ad=3.3e+11p pd=2.66e+06u as=0p ps=0u w=1e+06u l=150000u
X42 a_735_n100# a_687_122# a_639_n100# a_n3011_n274# sky130_fd_pr__nfet_01v8_lvt ad=3.3e+11p pd=2.66e+06u as=3.3e+11p ps=2.66e+06u w=1e+06u l=150000u
X43 a_831_n100# a_783_n188# a_735_n100# a_n3011_n274# sky130_fd_pr__nfet_01v8_lvt ad=0p pd=0u as=0p ps=0u w=1e+06u l=150000u
X44 a_639_n100# a_591_n188# a_543_n100# a_n3011_n274# sky130_fd_pr__nfet_01v8_lvt ad=0p pd=0u as=0p ps=0u w=1e+06u l=150000u
X45 a_n1473_n100# a_n1521_n188# a_n1569_n100# a_n3011_n274# sky130_fd_pr__nfet_01v8_lvt ad=3.3e+11p pd=2.66e+06u as=0p ps=0u w=1e+06u l=150000u
X46 a_n1281_n100# a_n1329_n188# a_n1377_n100# a_n3011_n274# sky130_fd_pr__nfet_01v8_lvt ad=3.3e+11p pd=2.66e+06u as=3.3e+11p ps=2.66e+06u w=1e+06u l=150000u
X47 a_n1185_n100# a_n1233_122# a_n1281_n100# a_n3011_n274# sky130_fd_pr__nfet_01v8_lvt ad=3.3e+11p pd=2.66e+06u as=0p ps=0u w=1e+06u l=150000u
X48 a_n993_n100# a_n1041_122# a_n1089_n100# a_n3011_n274# sky130_fd_pr__nfet_01v8_lvt ad=3.3e+11p pd=2.66e+06u as=3.3e+11p ps=2.66e+06u w=1e+06u l=150000u
X49 a_n1377_n100# a_n1425_122# a_n1473_n100# a_n3011_n274# sky130_fd_pr__nfet_01v8_lvt ad=0p pd=0u as=0p ps=0u w=1e+06u l=150000u
X50 a_n1089_n100# a_n1137_n188# a_n1185_n100# a_n3011_n274# sky130_fd_pr__nfet_01v8_lvt ad=0p pd=0u as=0p ps=0u w=1e+06u l=150000u
X51 a_n321_n100# a_n369_n188# a_n417_n100# a_n3011_n274# sky130_fd_pr__nfet_01v8_lvt ad=3.3e+11p pd=2.66e+06u as=3.3e+11p ps=2.66e+06u w=1e+06u l=150000u
X52 a_n801_n100# a_n849_122# a_n897_n100# a_n3011_n274# sky130_fd_pr__nfet_01v8_lvt ad=3.3e+11p pd=2.66e+06u as=3.3e+11p ps=2.66e+06u w=1e+06u l=150000u
X53 a_n705_n100# a_n753_n188# a_n801_n100# a_n3011_n274# sky130_fd_pr__nfet_01v8_lvt ad=3.3e+11p pd=2.66e+06u as=0p ps=0u w=1e+06u l=150000u
X54 a_n513_n100# a_n561_n188# a_n609_n100# a_n3011_n274# sky130_fd_pr__nfet_01v8_lvt ad=3.3e+11p pd=2.66e+06u as=3.3e+11p ps=2.66e+06u w=1e+06u l=150000u
X55 a_n417_n100# a_n465_122# a_n513_n100# a_n3011_n274# sky130_fd_pr__nfet_01v8_lvt ad=0p pd=0u as=0p ps=0u w=1e+06u l=150000u
X56 a_n225_n100# a_n273_122# a_n321_n100# a_n3011_n274# sky130_fd_pr__nfet_01v8_lvt ad=3.3e+11p pd=2.66e+06u as=0p ps=0u w=1e+06u l=150000u
X57 a_n129_n100# a_n177_n188# a_n225_n100# a_n3011_n274# sky130_fd_pr__nfet_01v8_lvt ad=0p pd=0u as=0p ps=0u w=1e+06u l=150000u
X58 a_n897_n100# a_n945_n188# a_n993_n100# a_n3011_n274# sky130_fd_pr__nfet_01v8_lvt ad=0p pd=0u as=0p ps=0u w=1e+06u l=150000u
X59 a_n609_n100# a_n657_122# a_n705_n100# a_n3011_n274# sky130_fd_pr__nfet_01v8_lvt ad=0p pd=0u as=0p ps=0u w=1e+06u l=150000u
.ends

.subckt sky130_fd_pr__nfet_01v8_lvt_HNLS5R a_159_n100# a_n323_n274# a_n129_n100# a_n221_n100#
+ a_63_n100# a_n33_n100# a_n81_122# a_n177_n188#
X0 a_63_n100# a_n177_n188# a_n33_n100# a_n323_n274# sky130_fd_pr__nfet_01v8_lvt ad=3.3e+11p pd=2.66e+06u as=3.3e+11p ps=2.66e+06u w=1e+06u l=150000u
X1 a_n33_n100# a_n81_122# a_n129_n100# a_n323_n274# sky130_fd_pr__nfet_01v8_lvt ad=0p pd=0u as=3.3e+11p ps=2.66e+06u w=1e+06u l=150000u
X2 a_159_n100# a_n81_122# a_63_n100# a_n323_n274# sky130_fd_pr__nfet_01v8_lvt ad=3.1e+11p pd=2.62e+06u as=0p ps=0u w=1e+06u l=150000u
X3 a_n129_n100# a_n177_n188# a_n221_n100# a_n323_n274# sky130_fd_pr__nfet_01v8_lvt ad=0p pd=0u as=3.1e+11p ps=2.62e+06u w=1e+06u l=150000u
.ends

.subckt output_buffer GND VDD OUTA OUTB BIAS INB INA SUB
XXR1 VDD m1_12140_1165# SUB sky130_fd_pr__res_high_po_2p85_P79JE3
XXR2 VDD m1_12140_n1090# SUB sky130_fd_pr__res_high_po_2p85_P79JE3
XXR3 VDD OUTB SUB sky130_fd_pr__res_high_po_5p73_W59YBA
XXM1 m1_9850_15# m1_9850_15# m1_9850_15# GND GND m1_9850_15# m1_9850_15# m1_9850_15#
+ GND GND m1_9850_15# GND m1_9850_15# BIAS m1_9850_15# SUB GND GND m1_9850_15# m1_9850_15#
+ GND GND GND sky130_fd_pr__nfet_01v8_lvt_YTLFGX
XXM2 m1_9850_15# m1_9850_15# m1_9850_15# GND GND m1_9850_15# m1_9850_15# m1_9850_15#
+ GND GND m1_9850_15# GND m1_9850_15# BIAS m1_9850_15# SUB GND GND m1_9850_15# m1_9850_15#
+ GND GND GND sky130_fd_pr__nfet_01v8_lvt_YTLFGX
XXM3 m1_13690_15# m1_13690_15# m1_13690_15# m1_13690_15# BIAS BIAS m1_13690_15# BIAS
+ BIAS m1_13690_15# BIAS m1_13690_15# BIAS BIAS m1_13690_15# BIAS GND GND BIAS GND
+ BIAS GND GND GND BIAS GND GND BIAS m1_13690_15# m1_13690_15# m1_13690_15# m1_13690_15#
+ m1_13690_15# BIAS m1_13690_15# BIAS m1_13690_15# m1_13690_15# m1_13690_15# m1_13690_15#
+ m1_13690_15# BIAS GND BIAS GND BIAS GND BIAS GND GND GND BIAS GND GND GND BIAS m1_13690_15#
+ m1_13690_15# m1_13690_15# BIAS BIAS BIAS m1_13690_15# m1_13690_15# m1_13690_15#
+ m1_13690_15# BIAS BIAS BIAS SUB BIAS GND BIAS BIAS BIAS GND GND BIAS BIAS GND BIAS
+ BIAS GND BIAS BIAS BIAS BIAS BIAS BIAS m1_13690_15# m1_13690_15# m1_13690_15# BIAS
+ m1_13690_15# BIAS BIAS BIAS BIAS BIAS BIAS GND BIAS BIAS GND GND GND GND BIAS BIAS
+ BIAS BIAS GND BIAS GND BIAS BIAS GND m1_13690_15# BIAS BIAS BIAS BIAS sky130_fd_pr__nfet_01v8_lvt_LELFGX
XXM4 m1_13690_15# m1_13690_15# m1_13690_15# m1_13690_15# BIAS BIAS m1_13690_15# BIAS
+ BIAS m1_13690_15# BIAS m1_13690_15# BIAS BIAS m1_13690_15# BIAS GND GND BIAS GND
+ BIAS GND GND GND BIAS GND GND BIAS m1_13690_15# m1_13690_15# m1_13690_15# m1_13690_15#
+ m1_13690_15# BIAS m1_13690_15# BIAS m1_13690_15# m1_13690_15# m1_13690_15# m1_13690_15#
+ m1_13690_15# BIAS GND BIAS GND BIAS GND BIAS GND GND GND BIAS GND GND GND BIAS m1_13690_15#
+ m1_13690_15# m1_13690_15# BIAS BIAS BIAS m1_13690_15# m1_13690_15# m1_13690_15#
+ m1_13690_15# BIAS BIAS BIAS SUB BIAS GND BIAS BIAS BIAS GND GND BIAS BIAS GND BIAS
+ BIAS GND BIAS BIAS BIAS BIAS BIAS BIAS m1_13690_15# m1_13690_15# m1_13690_15# BIAS
+ m1_13690_15# BIAS BIAS BIAS BIAS BIAS BIAS GND BIAS BIAS GND GND GND GND BIAS BIAS
+ BIAS BIAS GND BIAS GND BIAS BIAS GND m1_13690_15# BIAS BIAS BIAS BIAS sky130_fd_pr__nfet_01v8_lvt_LELFGX
XXR29 VDD OUTA SUB sky130_fd_pr__res_high_po_5p73_W59YBA
XXM42 m1_9850_15# SUB m1_12140_1165# m1_9850_15# m1_12140_1165# m1_9850_15# INA INA
+ sky130_fd_pr__nfet_01v8_lvt_HNLS5R
XXM43 m1_9850_15# SUB m1_12140_n1090# m1_9850_15# m1_12140_n1090# m1_9850_15# INB
+ INB sky130_fd_pr__nfet_01v8_lvt_HNLS5R
XXM32 m1_13690_15# m1_13690_15# m1_13690_15# OUTA OUTA m1_13690_15# m1_13690_15# m1_13690_15#
+ OUTA OUTA m1_13690_15# OUTA m1_13690_15# m1_12140_1165# m1_13690_15# SUB OUTA OUTA
+ m1_13690_15# m1_13690_15# OUTA OUTA OUTA sky130_fd_pr__nfet_01v8_lvt_YTLFGX
XXM33 m1_13690_15# m1_13690_15# m1_13690_15# OUTB OUTB m1_13690_15# m1_13690_15# m1_13690_15#
+ OUTB OUTB m1_13690_15# OUTB m1_13690_15# m1_12140_n1090# m1_13690_15# SUB OUTB OUTB
+ m1_13690_15# m1_13690_15# OUTB OUTB OUTB sky130_fd_pr__nfet_01v8_lvt_YTLFGX
.ends

.subckt sky130_fd_pr__pfet_01v8_lvt_D3M934 a_35_n100# a_n547_n197# a_n931_n197# a_931_n100#
+ a_547_n100# a_605_n197# a_n477_n100# a_n861_n100# a_n291_n197# a_291_n100# w_n1127_n319#
+ a_n221_n100# a_n989_n100# a_n803_n197# a_861_n197# a_n419_n197# a_477_n197# a_803_n100#
+ a_419_n100# a_n349_n100# a_n733_n100# a_n163_n197# a_163_n100# a_221_n197# a_n93_n100#
+ a_n675_n197# a_675_n100# a_733_n197# a_349_n197# a_n605_n100# a_n35_n197# a_93_n197#
X0 a_291_n100# a_221_n197# a_163_n100# w_n1127_n319# sky130_fd_pr__pfet_01v8_lvt ad=2.9e+11p pd=2.58e+06u as=2.9e+11p ps=2.58e+06u w=1e+06u l=350000u
X1 a_675_n100# a_605_n197# a_547_n100# w_n1127_n319# sky130_fd_pr__pfet_01v8_lvt ad=2.9e+11p pd=2.58e+06u as=2.9e+11p ps=2.58e+06u w=1e+06u l=350000u
X2 a_n221_n100# a_n291_n197# a_n349_n100# w_n1127_n319# sky130_fd_pr__pfet_01v8_lvt ad=2.9e+11p pd=2.58e+06u as=2.9e+11p ps=2.58e+06u w=1e+06u l=350000u
X3 a_n605_n100# a_n675_n197# a_n733_n100# w_n1127_n319# sky130_fd_pr__pfet_01v8_lvt ad=2.9e+11p pd=2.58e+06u as=2.9e+11p ps=2.58e+06u w=1e+06u l=350000u
X4 a_931_n100# a_861_n197# a_803_n100# w_n1127_n319# sky130_fd_pr__pfet_01v8_lvt ad=2.9e+11p pd=2.58e+06u as=2.9e+11p ps=2.58e+06u w=1e+06u l=350000u
X5 a_547_n100# a_477_n197# a_419_n100# w_n1127_n319# sky130_fd_pr__pfet_01v8_lvt ad=0p pd=0u as=2.9e+11p ps=2.58e+06u w=1e+06u l=350000u
X6 a_n93_n100# a_n163_n197# a_n221_n100# w_n1127_n319# sky130_fd_pr__pfet_01v8_lvt ad=2.9e+11p pd=2.58e+06u as=0p ps=0u w=1e+06u l=350000u
X7 a_163_n100# a_93_n197# a_35_n100# w_n1127_n319# sky130_fd_pr__pfet_01v8_lvt ad=0p pd=0u as=2.9e+11p ps=2.58e+06u w=1e+06u l=350000u
X8 a_n861_n100# a_n931_n197# a_n989_n100# w_n1127_n319# sky130_fd_pr__pfet_01v8_lvt ad=2.9e+11p pd=2.58e+06u as=2.9e+11p ps=2.58e+06u w=1e+06u l=350000u
X9 a_n477_n100# a_n547_n197# a_n605_n100# w_n1127_n319# sky130_fd_pr__pfet_01v8_lvt ad=2.9e+11p pd=2.58e+06u as=0p ps=0u w=1e+06u l=350000u
X10 a_419_n100# a_349_n197# a_291_n100# w_n1127_n319# sky130_fd_pr__pfet_01v8_lvt ad=0p pd=0u as=0p ps=0u w=1e+06u l=350000u
X11 a_803_n100# a_733_n197# a_675_n100# w_n1127_n319# sky130_fd_pr__pfet_01v8_lvt ad=0p pd=0u as=0p ps=0u w=1e+06u l=350000u
X12 a_35_n100# a_n35_n197# a_n93_n100# w_n1127_n319# sky130_fd_pr__pfet_01v8_lvt ad=0p pd=0u as=0p ps=0u w=1e+06u l=350000u
X13 a_n733_n100# a_n803_n197# a_n861_n100# w_n1127_n319# sky130_fd_pr__pfet_01v8_lvt ad=0p pd=0u as=0p ps=0u w=1e+06u l=350000u
X14 a_n349_n100# a_n419_n197# a_n477_n100# w_n1127_n319# sky130_fd_pr__pfet_01v8_lvt ad=0p pd=0u as=0p ps=0u w=1e+06u l=350000u
.ends

.subckt sky130_fd_pr__pfet_01v8_lvt_D3Z634 a_483_n100# a_1693_n197# a_541_n197# a_157_n197#
+ a_1635_n100# a_1309_n197# a_99_n100# a_n413_n100# a_n995_n197# a_n1891_n197# a_n29_n100#
+ a_n1507_n197# a_995_n100# a_1053_n197# a_669_n197# a_n925_n100# a_n1437_n100# a_n1821_n100#
+ w_n2087_n319# a_n355_n197# a_n1251_n197# a_413_n197# a_1891_n100# a_355_n100# a_n1181_n100#
+ a_1565_n197# a_1507_n100# a_n285_n100# a_29_n197# a_n1949_n100# a_n1763_n197# a_n867_n197#
+ a_n1379_n197# a_1251_n100# a_867_n100# a_925_n197# a_n797_n100# a_n1693_n100# a_n1309_n100#
+ a_n227_n197# a_n611_n197# a_n1123_n197# a_285_n197# a_1763_n100# a_1379_n100# a_611_n100#
+ a_227_n100# a_1821_n197# a_1437_n197# a_n157_n100# a_n541_n100# a_n1053_n100# a_n1635_n197#
+ a_n739_n197# a_1181_n197# a_797_n197# a_739_n100# a_1123_n100# a_n1565_n100# a_n669_n100#
+ a_n483_n197# a_n99_n197#
X0 a_483_n100# a_413_n197# a_355_n100# w_n2087_n319# sky130_fd_pr__pfet_01v8_lvt ad=2.9e+11p pd=2.58e+06u as=2.9e+11p ps=2.58e+06u w=1e+06u l=350000u
X1 a_n1181_n100# a_n1251_n197# a_n1309_n100# w_n2087_n319# sky130_fd_pr__pfet_01v8_lvt ad=2.9e+11p pd=2.58e+06u as=2.9e+11p ps=2.58e+06u w=1e+06u l=350000u
X2 a_n1565_n100# a_n1635_n197# a_n1693_n100# w_n2087_n319# sky130_fd_pr__pfet_01v8_lvt ad=2.9e+11p pd=2.58e+06u as=2.9e+11p ps=2.58e+06u w=1e+06u l=350000u
X3 a_n413_n100# a_n483_n197# a_n541_n100# w_n2087_n319# sky130_fd_pr__pfet_01v8_lvt ad=2.9e+11p pd=2.58e+06u as=2.9e+11p ps=2.58e+06u w=1e+06u l=350000u
X4 a_n797_n100# a_n867_n197# a_n925_n100# w_n2087_n319# sky130_fd_pr__pfet_01v8_lvt ad=2.9e+11p pd=2.58e+06u as=2.9e+11p ps=2.58e+06u w=1e+06u l=350000u
X5 a_355_n100# a_285_n197# a_227_n100# w_n2087_n319# sky130_fd_pr__pfet_01v8_lvt ad=0p pd=0u as=2.9e+11p ps=2.58e+06u w=1e+06u l=350000u
X6 a_739_n100# a_669_n197# a_611_n100# w_n2087_n319# sky130_fd_pr__pfet_01v8_lvt ad=2.9e+11p pd=2.58e+06u as=2.9e+11p ps=2.58e+06u w=1e+06u l=350000u
X7 a_n1821_n100# a_n1891_n197# a_n1949_n100# w_n2087_n319# sky130_fd_pr__pfet_01v8_lvt ad=2.9e+11p pd=2.58e+06u as=2.9e+11p ps=2.58e+06u w=1e+06u l=350000u
X8 a_1123_n100# a_1053_n197# a_995_n100# w_n2087_n319# sky130_fd_pr__pfet_01v8_lvt ad=2.9e+11p pd=2.58e+06u as=2.9e+11p ps=2.58e+06u w=1e+06u l=350000u
X9 a_1507_n100# a_1437_n197# a_1379_n100# w_n2087_n319# sky130_fd_pr__pfet_01v8_lvt ad=2.9e+11p pd=2.58e+06u as=2.9e+11p ps=2.58e+06u w=1e+06u l=350000u
X10 a_1891_n100# a_1821_n197# a_1763_n100# w_n2087_n319# sky130_fd_pr__pfet_01v8_lvt ad=2.9e+11p pd=2.58e+06u as=2.9e+11p ps=2.58e+06u w=1e+06u l=350000u
X11 a_99_n100# a_29_n197# a_n29_n100# w_n2087_n319# sky130_fd_pr__pfet_01v8_lvt ad=2.9e+11p pd=2.58e+06u as=2.9e+11p ps=2.58e+06u w=1e+06u l=350000u
X12 a_1763_n100# a_1693_n197# a_1635_n100# w_n2087_n319# sky130_fd_pr__pfet_01v8_lvt ad=0p pd=0u as=2.9e+11p ps=2.58e+06u w=1e+06u l=350000u
X13 a_n1053_n100# a_n1123_n197# a_n1181_n100# w_n2087_n319# sky130_fd_pr__pfet_01v8_lvt ad=2.9e+11p pd=2.58e+06u as=0p ps=0u w=1e+06u l=350000u
X14 a_n1437_n100# a_n1507_n197# a_n1565_n100# w_n2087_n319# sky130_fd_pr__pfet_01v8_lvt ad=2.9e+11p pd=2.58e+06u as=0p ps=0u w=1e+06u l=350000u
X15 a_n285_n100# a_n355_n197# a_n413_n100# w_n2087_n319# sky130_fd_pr__pfet_01v8_lvt ad=2.9e+11p pd=2.58e+06u as=0p ps=0u w=1e+06u l=350000u
X16 a_n669_n100# a_n739_n197# a_n797_n100# w_n2087_n319# sky130_fd_pr__pfet_01v8_lvt ad=2.9e+11p pd=2.58e+06u as=0p ps=0u w=1e+06u l=350000u
X17 a_611_n100# a_541_n197# a_483_n100# w_n2087_n319# sky130_fd_pr__pfet_01v8_lvt ad=0p pd=0u as=0p ps=0u w=1e+06u l=350000u
X18 a_227_n100# a_157_n197# a_99_n100# w_n2087_n319# sky130_fd_pr__pfet_01v8_lvt ad=0p pd=0u as=0p ps=0u w=1e+06u l=350000u
X19 a_995_n100# a_925_n197# a_867_n100# w_n2087_n319# sky130_fd_pr__pfet_01v8_lvt ad=0p pd=0u as=2.9e+11p ps=2.58e+06u w=1e+06u l=350000u
X20 a_n1693_n100# a_n1763_n197# a_n1821_n100# w_n2087_n319# sky130_fd_pr__pfet_01v8_lvt ad=0p pd=0u as=0p ps=0u w=1e+06u l=350000u
X21 a_n1309_n100# a_n1379_n197# a_n1437_n100# w_n2087_n319# sky130_fd_pr__pfet_01v8_lvt ad=0p pd=0u as=0p ps=0u w=1e+06u l=350000u
X22 a_n925_n100# a_n995_n197# a_n1053_n100# w_n2087_n319# sky130_fd_pr__pfet_01v8_lvt ad=0p pd=0u as=0p ps=0u w=1e+06u l=350000u
X23 a_1379_n100# a_1309_n197# a_1251_n100# w_n2087_n319# sky130_fd_pr__pfet_01v8_lvt ad=0p pd=0u as=2.9e+11p ps=2.58e+06u w=1e+06u l=350000u
X24 a_867_n100# a_797_n197# a_739_n100# w_n2087_n319# sky130_fd_pr__pfet_01v8_lvt ad=0p pd=0u as=0p ps=0u w=1e+06u l=350000u
X25 a_1251_n100# a_1181_n197# a_1123_n100# w_n2087_n319# sky130_fd_pr__pfet_01v8_lvt ad=0p pd=0u as=0p ps=0u w=1e+06u l=350000u
X26 a_1635_n100# a_1565_n197# a_1507_n100# w_n2087_n319# sky130_fd_pr__pfet_01v8_lvt ad=0p pd=0u as=0p ps=0u w=1e+06u l=350000u
X27 a_n541_n100# a_n611_n197# a_n669_n100# w_n2087_n319# sky130_fd_pr__pfet_01v8_lvt ad=0p pd=0u as=0p ps=0u w=1e+06u l=350000u
X28 a_n157_n100# a_n227_n197# a_n285_n100# w_n2087_n319# sky130_fd_pr__pfet_01v8_lvt ad=2.9e+11p pd=2.58e+06u as=0p ps=0u w=1e+06u l=350000u
X29 a_n29_n100# a_n99_n197# a_n157_n100# w_n2087_n319# sky130_fd_pr__pfet_01v8_lvt ad=0p pd=0u as=0p ps=0u w=1e+06u l=350000u
.ends

.subckt sky130_fd_pr__nfet_01v8_lvt_9DHFGX a_159_n100# a_111_n188# a_15_122# a_n273_n188#
+ a_255_n100# a_n611_n274# a_351_n100# a_n417_n100# a_207_122# a_n129_n100# a_n81_n188#
+ a_63_n100# a_n177_122# a_n225_n100# a_n321_n100# a_n369_122# a_n33_n100# a_n509_n100#
+ a_303_n188# a_n465_n188# a_447_n100# a_399_122#
X0 a_63_n100# a_15_122# a_n33_n100# a_n611_n274# sky130_fd_pr__nfet_01v8_lvt ad=3.3e+11p pd=2.66e+06u as=3.3e+11p ps=2.66e+06u w=1e+06u l=150000u
X1 a_n33_n100# a_n81_n188# a_n129_n100# a_n611_n274# sky130_fd_pr__nfet_01v8_lvt ad=0p pd=0u as=3.3e+11p ps=2.66e+06u w=1e+06u l=150000u
X2 a_351_n100# a_303_n188# a_255_n100# a_n611_n274# sky130_fd_pr__nfet_01v8_lvt ad=3.3e+11p pd=2.66e+06u as=3.3e+11p ps=2.66e+06u w=1e+06u l=150000u